*SPEF "IEEE 1481-1998"*DESIGN "uart"*DATE "Mon Dec 16 22:09:55 2019"*VENDOR "ISPD 2013 Contest"*PROGRAM "Benchmark Parasitic Generator"*VERSION "0.0"*DESIGN_FLOW "PIN_CAP NONE"*DIVIDER /*DELIMITER :*BUS_DELIMITER []*T_UNIT 1.00000 NS*C_UNIT 1.00000 PF*R_UNIT 1.00000 OHM*L_UNIT 1.00000 HENRY*NAME_MAP*0 _13_*1 _13__bF_buf3*2 _13__bF_buf2*3 _13__bF_buf1*4 _13__bF_buf0*5 clk*6 clk_bF_buf6*7 clk_bF_buf5*8 clk_bF_buf4*9 clk_bF_buf3*10 clk_bF_buf2*11 clk_bF_buf1*12 clk_bF_buf0*13 reset*14 _233_*15 tx_wr*16 _14_*17 tx_bitcount_1_*18 _15_*19 tx_bitcount_3_*20 _16_*21 tx_bitcount_2_*22 _17_*23 _18_*24 _19_*25 tx_bitcount_0_*26 _20_*27 enable16_counter_3_*28 enable16_counter_2_*29 _21_*30 enable16_counter_1_*31 enable16_counter_0_*32 _22_*33 _23_*34 enable16_counter_4_*35 enable16_counter_7_*36 _24_*37 enable16_counter_5_*38 enable16_counter_6_*39 _25_*40 _26_*41 _27_*42 enable16_counter_8_*43 enable16_counter_11_*44 _28_*45 enable16_counter_9_*46 enable16_counter_10_*47 _29_*48 _30_*49 enable16_counter_15_*50 enable16_counter_12_*51 _31_*52 enable16_counter_14_*53 enable16_counter_13_*54 _32_*55 _33_*56 _34_*57 _35_*58 tx_count16_1_*59 tx_count16_0_*60 _36_*61 tx_count16_3_*62 tx_count16_2_*63 _37_*64 _38_*65 _39_*66 _40_*67 _9_*68 _41_*69 _42_*70 _43_*71 _44_*72 _45_*73 _46_*74 _47_*75 _8__0_*76 _48_*77 _49_*78 _50_*79 _51_*80 _52_*81 _53_*82 _54_*83 _8__1_*84 _55_*85 _56_*86 _57_*87 _58_*88 _59_*89 _60_*90 _61_*91 _8__2_*92 _62_*93 _63_*94 _64_*95 _65_*96 _8__3_*97 _66_*98 _67_*99 _68_*100 _69_*101 _70_*102 _10__0_*103 _71_*104 _72_*105 _73_*106 _74_*107 _10__1_*108 _75_*109 _76_*110 _77_*111 _10__2_*112 _78_*113 _79_*114 _80_*115 _81_*116 _82_*117 _10__3_*118 _83_*119 txd_reg_1_*120 _84_*121 _85_*122 txd_reg_0_*123 _86_*124 tx_data[0]*125 _87_*126 _11__0_*127 txd_reg_2_*128 _88_*129 _89_*130 _90_*131 tx_data[1]*132 _91_*133 _11__1_*134 txd_reg_3_*135 _92_*136 _93_*137 _94_*138 tx_data[2]*139 _95_*140 _11__2_*141 txd_reg_4_*142 _96_*143 _97_*144 _98_*145 tx_data[3]*146 _99_*147 _11__3_*148 txd_reg_5_*149 _100_*150 _101_*151 _102_*152 tx_data[4]*153 _103_*154 _11__4_*155 txd_reg_6_*156 _104_*157 _105_*158 _106_*159 tx_data[5]*160 _107_*161 _11__5_*162 txd_reg_7_*163 _108_*164 _109_*165 _110_*166 tx_data[6]*167 _111_*168 _11__6_*169 tx_data[7]*170 _112_*171 _113_*172 _114_*173 _11__7_*174 _231__0_*175 _115_*176 rxd_reg_0_*177 _116_*178 uart_rxd2*179 _117_*180 rx_busy*181 _118_*182 rx_bitcount_2_*183 _119_*184 rx_bitcount_1_*185 _120_*186 _121_*187 rx_bitcount_3_*188 rx_bitcount_0_*189 _122_*190 _123_*191 rx_count16_1_*192 rx_count16_0_*193 _124_*194 rx_count16_3_*195 rx_count16_2_*196 _125_*197 _126_*198 _127_*199 _128_*200 _129_*201 _5__0_*202 _231__1_*203 _130_*204 rxd_reg_1_*205 _131_*206 _5__1_*207 _231__2_*208 _132_*209 rxd_reg_2_*210 _133_*211 _5__2_*212 _231__3_*213 _134_*214 rxd_reg_3_*215 _135_*216 _5__3_*217 _231__4_*218 _136_*219 rxd_reg_4_*220 _137_*221 _5__4_*222 _231__5_*223 _138_*224 rxd_reg_5_*225 _139_*226 _5__5_*227 _231__6_*228 _140_*229 rxd_reg_6_*230 _141_*231 _5__6_*232 _231__7_*233 _142_*234 rxd_reg_7_*235 _143_*236 _5__7_*237 rx_ack*238 _144_*239 _230_*240 _145_*241 _1_*242 _232_*243 _146_*244 _147_*245 _148_*246 _6_*247 _149_*248 _150_*249 _151_*250 _152_*251 _153_*252 _154_*253 _155_*254 _156_*255 _157_*256 _158_*257 _159_*258 _3_*259 _160_*260 _161_*261 _162_*262 _4__0_*263 _163_*264 _164_*265 _165_*266 _4__1_*267 _166_*268 _167_*269 _168_*270 _169_*271 _4__2_*272 _170_*273 _171_*274 _172_*275 _173_*276 _4__3_*277 _174_*278 _175_*279 _176_*280 _177_*281 _178_*282 _179_*283 _2__0_*284 _180_*285 _181_*286 _182_*287 _183_*288 _2__1_*289 _184_*290 _185_*291 _186_*292 _187_*293 _188_*294 _2__2_*295 _189_*296 _190_*297 _191_*298 _2__3_*299 _192_*300 _193_*301 _7__0_*302 _7__1_*303 _7__2_*304 _7__3_*305 _7__4_*306 _7__5_*307 _7__6_*308 _7__7_*309 _194_*310 _0__0_*311 _195_*312 _0__1_*313 _196_*314 _197_*315 _198_*316 _0__2_*317 _199_*318 _0__3_*319 _200_*320 _0__4_*321 _201_*322 _202_*323 _203_*324 _0__5_*325 _204_*326 _205_*327 _0__6_*328 _206_*329 _207_*330 _0__7_*331 _208_*332 _209_*333 _210_*334 _0__8_*335 _211_*336 _212_*337 _0__9_*338 _213_*339 _214_*340 _0__10_*341 _215_*342 _216_*343 _0__11_*344 _217_*345 _218_*346 _219_*347 _0__12_*348 _220_*349 _221_*350 _222_*351 _0__13_*352 _223_*353 _224_*354 _0__14_*355 _225_*356 _0__15_*357 _226_*358 _227_*359 _228_*360 _234_*361 _229_*362 _12_*363 rx_avail*364 rx_data[0]*365 rx_data[1]*366 rx_data[2]*367 rx_data[3]*368 rx_data[4]*369 rx_data[5]*370 rx_data[6]*371 rx_data[7]*372 rx_error*373 tx_busy*374 uart_txd*375 uart_rxd*376 uart_rxd1*D_NET *0 0.00025206883999999994*CONN*I INVX8_1:Y O*I BUFX2_1:A I*I BUFX4_3:A I*I BUFX4_2:A I*I BUFX4_1:A I*CAP0 *0:1 2.5157e-051 *0:2 2.516372e-052 *0:3 2.526452e-053 *0:4 5.0314e-054 *0:5 2.5157e-055 *0:6 1.2239999999999998e-076 *0:7 2.5157e-057 *0:8 5.76e-088 *0:9 1.8e-099 *0:10 2.5157e-0510 *0:11 2.0399999999999997e-0811 *0:12 2.5157e-0512 *0:13 2.5157e-0513 *0:14 1.8239999999999997e-07*RES0 BUFX2_1:A *0:1 5.01 *0:1 *0:2 5.02 *0:2 *0:3 2986.66666666666743 *0:3 *0:4 5.04 BUFX4_1:A *0:4 5.05 INVX8_1:Y *0:5 5.06 *0:5 *0:6 1400.00000000000027 *0:6 *0:7 5.08 *0:7 *0:2 186.66666666666679 BUFX4_3:A *0:8 373.333333333333410 *0:8 *0:9 11.6666666666666711 BUFX4_2:A *0:10 5.012 *0:10 *0:11 233.3333333333333713 *0:11 *0:12 5.014 *0:12 *0:13 5.015 *0:13 *0:14 1266.666666666666716 *0:14 *0:3 5.0*END*D_NET *1 0.0003786243599999999*CONN*I NAND2X1_22:A I*I NAND3X1_11:A I*I NAND3X1_13:A I*I OAI21X1_39:C I*I NAND2X1_15:A I*I NAND2X1_18:A I*I BUFX4_1:Y O*CAP14 *1:1 2.53406e-0515 *1:2 8.159999999999999e-0816 *1:3 1.632e-0817 *1:4 2.8559999999999996e-0718 BUFX4_1:Y 2.5157e-0519 *1:5 2.5157e-0520 *1:6 4.0799999999999995e-0821 *1:7 2.5157e-0522 *1:8 2.0159999999999997e-0823 *1:9 2.5157e-0524 *1:10 2.5157e-0525 *1:11 2.0399999999999997e-0826 *1:12 2.5157e-0527 *1:13 1.1423999999999998e-0728 *1:14 2.5157e-0529 *1:15 2.5157e-0530 *1:16 4.0799999999999995e-0831 *1:17 2.519732e-0532 *1:18 1.4111999999999998e-0733 *1:19 2.5157e-0534 *1:20 2.5157e-0535 *1:21 4.0799999999999995e-0836 *1:22 2.52578e-0537 *1:23 2.5157e-0538 *1:24 1.4279999999999998e-0739 *1:25 2.5157e-05*RES17 NAND3X1_11:A *1:1 5.018 *1:1 *1:2 700.000000000000119 *1:2 *1:3 186.666666666666720 *1:3 *1:4 3266.666666666667421 *1:4 BUFX4_1:Y 5.022 NAND2X1_22:A *1:5 5.023 *1:5 *1:6 466.6666666666667424 *1:6 *1:7 5.025 *1:7 *1:8 560.000000000000126 *1:8 *1:9 5.027 *1:9 *1:1 2100.000000000000528 OAI21X1_39:C *1:10 5.029 *1:10 *1:11 233.3333333333333730 *1:11 *1:12 5.031 *1:12 *1:13 3173.33333333333432 *1:13 *1:14 5.033 NAND2X1_18:A *1:15 5.034 *1:15 *1:16 466.6666666666667435 *1:16 *1:17 5.036 *1:17 *1:18 3920.00000000000137 *1:18 *1:19 5.038 *1:19 *1:2 233.3333333333333739 NAND2X1_15:A *1:20 5.040 *1:20 *1:21 466.6666666666667441 *1:21 *1:22 5.042 *1:22 *1:17 1120.000000000000243 NAND3X1_13:A *1:23 5.044 *1:23 *1:24 1633.333333333333745 *1:24 *1:25 5.046 *1:25 *1:22 2800.0000000000005*END*D_NET *2 0.0003028562399999999*CONN*I OAI21X1_32:A I*I OAI21X1_62:C I*I OAI21X1_1:C I*I NAND2X1_27:A I*I AND2X2_1:B I*I OAI21X1_2:C I*I BUFX4_2:Y O*CAP40 *2:1 2.5157e-0541 *2:2 2.4071999999999995e-0742 *2:3 1.02e-0743 BUFX4_2:Y 2.5157e-0544 *2:4 5.0314e-0545 *2:5 2.5157e-0546 *2:6 2.521076e-0547 *2:7 4.031999999999999e-0848 *2:8 2.5157e-0549 *2:9 2.0399999999999997e-0850 *2:10 2.529812e-0551 *2:11 2.5157e-0552 *2:12 2.516372e-0553 *2:13 2.5157e-0554 *2:14 3.672e-0755 *2:15 2.5157e-05*RES47 OAI21X1_32:A *2:1 5.048 *2:1 *2:2 186.666666666666749 *2:2 *2:3 1166.66666666666750 *2:3 BUFX4_2:Y 5.051 OAI21X1_1:C *2:4 5.052 *2:4 *2:2 2566.66666666666753 OAI21X1_2:C *2:5 5.054 *2:5 *2:6 5.055 *2:6 *2:7 1120.000000000000256 *2:7 *2:4 5.057 AND2X2_1:B *2:8 5.058 *2:8 *2:9 233.3333333333333759 *2:9 *2:10 5.060 *2:10 *2:6 1493.333333333333761 OAI21X1_62:C *2:11 5.062 *2:11 *2:12 5.063 *2:12 *2:10 3920.00000000000164 NAND2X1_27:A *2:13 5.065 *2:13 *2:14 4200.00000000000166 *2:14 *2:15 5.067 *2:15 *2:12 186.6666666666667*END*D_NET *3 0.00045428951999999985*CONN*I OAI22X1_3:A I*I OAI22X1_1:A I*I OAI22X1_4:A I*I OAI22X1_5:A I*I OAI22X1_2:A I*I NAND2X1_9:A I*I BUFX4_3:Y O*CAP56 *3:1 2.51774e-0557 *3:2 2.5157e-0558 *3:3 1.1424e-0759 *3:4 5.0314e-0560 *3:5 2.5157e-0561 *3:6 2.0399999999999997e-0862 *3:7 2.5157e-0563 *3:8 2.0831999999999998e-0764 *3:9 2.5157e-0565 *3:10 5.0314e-0566 *3:11 8.159999999999999e-0867 *3:12 1.632e-0868 *3:13 3.06e-0769 *3:14 2.5157e-0570 *3:15 2.5157e-0571 *3:16 2.5157e-0572 *3:17 1.0752e-0773 *3:18 2.5157e-0574 *3:19 2.6519999999999997e-0775 *3:20 2.5157e-0576 *3:21 2.5157e-0577 *3:22 2.5157e-0578 *3:23 6.72e-0979 *3:24 2.5157e-0580 *3:25 3.167999999999999e-0781 *3:26 2.5157e-05*RES68 OAI22X1_1:A *3:1 5.069 *3:1 *3:2 5.070 *3:2 *3:3 1493.333333333333771 *3:3 *3:4 5.072 BUFX4_3:Y *3:4 5.073 OAI22X1_3:A *3:5 5.074 *3:5 *3:6 233.3333333333333775 *3:6 *3:7 5.076 *3:7 *3:8 5786.66666666666877 *3:8 *3:9 5.078 *3:9 *3:1 233.3333333333333779 OAI22X1_2:A *3:10 5.080 *3:10 *3:11 933.333333333333581 *3:11 *3:12 186.666666666666782 *3:12 *3:13 3500.000000000000583 *3:13 *3:14 5.084 OAI22X1_4:A *3:15 5.085 *3:15 *3:16 5.086 *3:16 *3:17 2986.666666666667487 *3:17 *3:10 5.088 OAI22X1_5:A *3:18 5.089 *3:18 *3:19 3033.33333333333490 *3:19 *3:20 5.091 NAND2X1_9:A *3:21 5.092 *3:21 *3:22 5.093 *3:22 *3:23 186.666666666666794 *3:23 *3:24 5.095 *3:24 *3:25 2200.000000000000596 *3:25 *3:26 5.097 *3:26 *3:3 1680.0000000000005*END*D_NET *4 0.0002524884799999999*CONN*I OAI21X1_36:C I*I NAND2X1_25:A I*I NAND2X1_20:A I*I OAI21X1_37:C I*I OAI21X1_45:C I*I BUFX2_1:Y O*CAP82 *4:1 2.5157e-0583 *4:2 1.9992e-0784 *4:3 1.6319999999999998e-0785 BUFX2_1:Y 2.5157e-0586 NAND2X1_25:A 2.88e-0887 *4:4 2.5157e-0588 *4:5 2.516372e-0589 *4:6 2.6208e-0790 *4:7 2.5157e-0591 *4:8 2.5157e-0592 *4:9 1.836e-0793 *4:10 2.5157e-0594 *4:11 2.5157e-0595 *4:12 2.0399999999999997e-0896 *4:13 2.5157e-0597 *4:14 5.376e-0898 *4:15 2.5157e-05*RES98 NAND2X1_25:A *4:1 5.099 *4:1 *4:2 186.6666666666667100 *4:2 *4:3 1866.666666666667101 *4:3 BUFX2_1:Y 5.0102 NAND2X1_20:A NAND2X1_25:A 186.6666666666667103 OAI21X1_45:C *4:4 5.0104 *4:4 *4:5 5.0105 *4:5 *4:6 7280.000000000001106 *4:6 *4:7 5.0107 *4:7 *4:2 2100.0000000000005108 OAI21X1_36:C *4:8 5.0109 *4:8 *4:9 2100.0000000000005110 *4:9 *4:10 5.0111 *4:10 *4:5 186.6666666666667112 OAI21X1_37:C *4:11 5.0113 *4:11 *4:12 233.33333333333337114 *4:12 *4:13 5.0115 *4:13 *4:14 1493.3333333333337116 *4:14 *4:15 5.0*END*D_NET *5 0.000505299238*CONN*P clk O*I BUFX4_10:A I*I BUFX4_9:A I*I BUFX4_8:A I*I BUFX4_7:A I*I BUFX4_6:A I*I BUFX4_5:A I*I BUFX4_4:A I*CAP99 *5:1 2.5157e-05100 *5:2 4.0799999999999995e-08101 *5:3 2.543924e-05102 *5:4 1.344e-08103 *5:5 2.5157e-05104 *5:6 3.468e-07105 BUFX4_4:A 2.5157e-05106 *5:7 2.5157e-05107 *5:8 3.6719999999999995e-07108 *5:9 2.5157e-05109 *5:10 2.88e-08110 *5:11 5.0314e-05111 *5:12 3.2639999999999996e-07112 *5:13 2.5157e-05113 *5:14 1.1423999999999998e-07114 *5:15 2.5157e-05115 *5:16 2.5157e-05116 *5:17 2.5157e-05117 *5:18 2.0159999999999997e-08118 *5:19 2.5157e-05119 *5:20 8.159999999999999e-08120 *5:21 2.5157e-05121 *5:22 1.5455999999999998e-07122 *5:23 2.5157e-05123 *5:24 2.5170398e-05124 *5:25 2.5157e-05125 *5:26 2.0159999999999998e-07126 *5:27 2.5157e-05127 *5:28 1.6799999999999997e-07128 *5:29 2.5157e-05129 *5:30 2.5157e-05*RES117 BUFX4_9:A *5:1 5.0118 *5:1 *5:2 466.66666666666674119 *5:2 *5:3 5.0120 *5:3 *5:4 373.3333333333334121 *5:4 *5:5 5.0122 *5:5 *5:6 2100.0000000000005123 *5:6 BUFX4_4:A 5.0124 BUFX4_7:A *5:7 5.0125 *5:7 *5:8 466.66666666666674126 *5:8 *5:9 5.0127 *5:9 *5:3 7840.000000000002128 BUFX4_10:A *5:10 186.6666666666667129 *5:10 *5:11 5.0130 *5:11 *5:12 3033.333333333334131 *5:12 *5:13 5.0132 *5:13 *5:14 3173.333333333334133 *5:14 *5:15 5.0134 *5:15 *5:8 3733.333333333334135 BUFX4_8:A *5:16 5.0136 *5:16 *5:17 5.0137 *5:17 *5:18 560.0000000000001138 *5:18 *5:11 5.0139 BUFX4_5:A *5:19 5.0140 *5:19 *5:20 933.3333333333335141 *5:20 *5:21 5.0142 *5:21 *5:22 4293.333333333334143 *5:22 *5:23 5.0144 *5:23 *5:12 700.0000000000001145 clk *5:24 372.16666666666674146 *5:24 *5:25 5.0147 *5:25 *5:26 1400.0148 *5:26 *5:27 5.0149 *5:27 *5:28 4666.666666666668150 *5:28 *5:29 5.0151 *5:29 *5:6 1866.666666666667152 BUFX4_6:A *5:30 5.0153 *5:30 *5:24 5.0*END*D_NET *6 0.00042916587999999986*CONN*I DFFPOSX1_58:CLK I*I DFFPOSX1_42:CLK I*I DFFPOSX1_50:CLK I*I DFFPOSX1_56:CLK I*I DFFPOSX1_48:CLK I*I DFFPOSX1_49:CLK I*I DFFPOSX1_22:CLK I*I DFFPOSX1_21:CLK I*I DFFPOSX1_23:CLK I*I BUFX4_4:Y O*CAP130 *6:1 2.5157e-05131 *6:2 1.6319999999999998e-07132 *6:3 2.5157e-05133 BUFX4_4:Y 2.88e-08134 *6:4 2.5157e-05135 *6:5 1.2239999999999998e-07136 DFFPOSX1_56:CLK 2.51588e-05137 *6:6 2.5157e-05138 *6:7 4.08e-07139 *6:8 2.5157e-05140 DFFPOSX1_23:CLK 1.2599999999999999e-08141 *6:9 2.54222e-05142 *6:10 2.5157e-05143 *6:11 2.5157e-05144 *6:12 2.521748e-05145 *6:13 6.719999999999999e-08146 *6:14 2.5157e-05147 *6:15 2.5157e-05148 *6:16 1.02e-07149 DFFPOSX1_42:CLK 2.5157e-05150 *6:17 2.5157e-05151 *6:18 2.0399999999999997e-08152 *6:19 2.5157e-05153 *6:20 2.5157e-05154 *6:21 2.4479999999999997e-07155 DFFPOSX1_50:CLK 2.5157e-05*RES154 DFFPOSX1_56:CLK *6:1 5.0155 *6:1 *6:2 1633.3333333333337156 *6:2 *6:3 5.0157 *6:3 BUFX4_4:Y 186.6666666666667158 DFFPOSX1_23:CLK *6:4 5.0159 *6:4 *6:5 1400.0000000000002160 *6:5 DFFPOSX1_56:CLK 5.0161 DFFPOSX1_56:CLK DFFPOSX1_56:CLK 11.66666666666667162 DFFPOSX1_21:CLK *6:6 5.0163 *6:6 *6:7 2333.333333333334164 *6:7 *6:8 5.0165 *6:8 DFFPOSX1_23:CLK 81.66666666666667166 DFFPOSX1_22:CLK *6:9 5.0167 *6:9 *6:7 2333.333333333334168 DFFPOSX1_58:CLK *6:10 5.0169 *6:10 *6:9 3033.333333333334170 DFFPOSX1_42:CLK *6:11 5.0171 *6:11 *6:12 5.0172 *6:12 *6:13 1866.666666666667173 *6:13 *6:14 5.0174 *6:14 *6:2 233.33333333333337175 DFFPOSX1_48:CLK *6:15 5.0176 *6:15 *6:16 1166.666666666667177 *6:16 DFFPOSX1_42:CLK 5.0178 DFFPOSX1_50:CLK *6:17 5.0179 *6:17 *6:18 233.33333333333337180 *6:18 *6:19 5.0181 *6:19 *6:12 1680.0000000000005182 DFFPOSX1_49:CLK *6:20 5.0183 *6:20 *6:21 2800.0000000000005184 *6:21 DFFPOSX1_50:CLK 5.0*END*D_NET *7 0.00058092172*CONN*I DFFPOSX1_47:CLK I*I DFFPOSX1_46:CLK I*I DFFPOSX1_30:CLK I*I DFFPOSX1_36:CLK I*I DFFPOSX1_31:CLK I*I DFFPOSX1_35:CLK I*I DFFPOSX1_32:CLK I*I DFFPOSX1_37:CLK I*I DFFPOSX1_34:CLK I*I BUFX4_5:Y O*CAP156 *7:1 2.55038e-05157 *7:2 6.119999999999999e-08158 *7:3 2.5157e-05159 *7:4 1.1423999999999998e-07160 *7:5 2.5157e-05161 *7:6 2.4479999999999997e-07162 BUFX4_5:Y 2.5157e-05163 *7:7 2.5157e-05164 *7:8 6.119999999999999e-08165 *7:9 2.5157e-05166 *7:10 2.688e-08167 *7:11 2.51978e-05168 *7:12 2.5157e-05169 *7:13 2.0399999999999997e-08170 *7:14 2.531828e-05171 *7:15 1.1423999999999998e-07172 *7:16 2.5157e-05173 *7:17 2.5157e-05174 *7:18 2.0399999999999997e-08175 *7:19 2.523764e-05176 *7:20 2.5157e-05177 *7:21 3.4679999999999996e-07178 *7:22 2.5157e-05179 *7:23 2.54426e-05180 *7:24 1.836e-07181 *7:25 2.5157e-05182 *7:26 2.688e-08183 *7:27 2.5157e-05184 *7:28 5.0314e-05185 *7:29 2.5157e-05186 *7:30 2.52578e-05187 *7:31 5.376e-08188 *7:32 2.5157e-05189 *7:33 2.0399999999999997e-08190 *7:34 2.5157e-05*RES185 DFFPOSX1_35:CLK *7:1 5.0186 *7:1 *7:2 700.0000000000001187 *7:2 *7:3 5.0188 *7:3 *7:4 3173.333333333334189 *7:4 *7:5 5.0190 *7:5 *7:6 2800.0000000000005191 *7:6 BUFX4_5:Y 5.0192 DFFPOSX1_32:CLK *7:7 5.0193 *7:7 *7:8 700.0000000000001194 *7:8 *7:9 5.0195 *7:9 *7:10 746.6666666666669196 *7:10 *7:11 5.0197 *7:11 *7:1 3966.6666666666674198 DFFPOSX1_34:CLK *7:12 5.0199 *7:12 *7:13 233.33333333333337200 *7:13 *7:14 5.0201 *7:14 *7:15 3173.333333333334202 *7:15 *7:16 5.0203 *7:16 *7:11 466.66666666666674204 DFFPOSX1_31:CLK *7:17 5.0205 *7:17 *7:18 233.33333333333337206 *7:18 *7:19 5.0207 *7:19 *7:14 4480.000000000001208 DFFPOSX1_30:CLK *7:20 5.0209 *7:20 *7:21 233.33333333333337210 *7:21 *7:22 5.0211 *7:22 *7:19 2240.0000000000005212 DFFPOSX1_36:CLK *7:23 5.0213 *7:23 *7:24 2100.0000000000005214 *7:24 *7:25 5.0215 *7:25 *7:26 746.6666666666669216 *7:26 *7:27 5.0217 *7:27 *7:21 3733.333333333334218 DFFPOSX1_46:CLK *7:28 5.0219 *7:28 *7:23 3266.6666666666674220 DFFPOSX1_47:CLK *7:29 5.0221 *7:29 *7:30 5.0222 *7:30 *7:31 1493.3333333333337223 *7:31 *7:28 5.0224 DFFPOSX1_37:CLK *7:32 5.0225 *7:32 *7:33 233.33333333333337226 *7:33 *7:34 5.0227 *7:34 *7:30 2800.0000000000005*END*D_NET *8 0.00045418692*CONN*I DFFPOSX1_57:CLK I*I DFFPOSX1_60:CLK I*I DFFPOSX1_55:CLK I*I DFFPOSX1_62:CLK I*I DFFPOSX1_54:CLK I*I DFFPOSX1_63:CLK I*I DFFPOSX1_61:CLK I*I DFFPOSX1_13:CLK I*I DFFPOSX1_59:CLK I*I BUFX4_6:Y O*CAP191 *8:2 1.8e-09192 BUFX4_6:Y 5.76e-08193 *8:3 2.5157e-05194 *8:4 2.4479999999999997e-07195 DFFPOSX1_59:CLK 2.5157e-05196 *8:5 2.5157e-05197 *8:6 1.02e-07198 DFFPOSX1_62:CLK 2.5157e-05199 *8:7 2.5157e-05200 *8:8 2.523764e-05201 *8:9 2.0159999999999998e-07202 *8:10 5.0314e-05203 DFFPOSX1_61:CLK 1.8e-09204 *8:11 2.5157e-05205 *8:12 2.5157e-05206 *8:13 2.53814e-05207 *8:14 1.6319999999999998e-07208 *8:15 2.5157e-05209 *8:16 5.76e-08210 *8:17 1.8e-09211 *8:18 2.51774e-05212 *8:19 2.5157e-05213 *8:20 1.4279999999999998e-07214 DFFPOSX1_54:CLK 2.5157e-05215 *8:21 2.5157e-05216 *8:22 2.5157e-05217 *8:23 6.048e-08218 *8:24 2.5157e-05*RES228 *8:1 *8:2 11.66666666666667229 *8:2 BUFX4_6:Y 373.3333333333334230 DFFPOSX1_62:CLK *8:3 5.0231 *8:3 *8:4 2800.0000000000005232 *8:4 DFFPOSX1_59:CLK 5.0233 DFFPOSX1_61:CLK *8:5 5.0234 *8:5 *8:6 1166.666666666667235 *8:6 DFFPOSX1_62:CLK 5.0236 DFFPOSX1_63:CLK *8:7 5.0237 *8:7 *8:8 5.0238 *8:8 *8:9 5600.000000000001239 *8:9 *8:10 5.0240 DFFPOSX1_61:CLK *8:10 5.0241 DFFPOSX1_61:CLK DFFPOSX1_61:CLK 11.66666666666667242 DFFPOSX1_60:CLK *8:11 5.0243 *8:11 *8:12 5.0244 *8:12 *8:8 2240.0000000000005245 DFFPOSX1_54:CLK *8:13 5.0246 *8:13 *8:14 1866.666666666667247 *8:14 *8:15 5.0248 *8:15 *8:16 373.3333333333334249 *8:16 *8:17 11.66666666666667250 DFFPOSX1_55:CLK *8:18 5.0251 *8:18 *8:13 2566.666666666667252 DFFPOSX1_13:CLK *8:19 5.0253 *8:19 *8:20 1633.3333333333337254 *8:20 DFFPOSX1_54:CLK 5.0255 DFFPOSX1_57:CLK *8:21 5.0256 *8:21 *8:22 5.0257 *8:22 *8:23 1680.0000000000005258 *8:23 *8:24 5.0259 *8:24 *8:18 233.33333333333337*END*D_NET *9 0.0004803210799999999*CONN*I DFFPOSX1_51:CLK I*I DFFPOSX1_45:CLK I*I DFFPOSX1_16:CLK I*I DFFPOSX1_27:CLK I*I DFFPOSX1_14:CLK I*I DFFPOSX1_28:CLK I*I DFFPOSX1_24:CLK I*I DFFPOSX1_26:CLK I*I DFFPOSX1_33:CLK I*I BUFX4_7:Y O*CAP219 *9:1 2.5157e-05220 *9:2 1.6319999999999998e-07221 BUFX4_7:Y 5.0314e-05222 *9:3 2.5157e-05223 *9:4 2.5157e-05224 *9:5 4.031999999999999e-08225 *9:6 2.5565e-05226 *9:7 1.02e-07227 *9:8 2.5157e-05228 *9:9 2.5157e-05229 *9:10 3.4679999999999996e-07230 *9:11 2.5157e-05231 DFFPOSX1_28:CLK 1.2599999999999999e-08232 *9:12 2.55854e-05233 *9:13 2.52998e-05234 DFFPOSX1_24:CLK 2.51624e-05235 *9:14 2.88e-08236 *9:15 2.5157e-05237 *9:16 2.5157e-05238 *9:17 2.5157e-05239 *9:18 1.2096e-07240 *9:19 2.5157e-05241 *9:20 1.2239999999999998e-07242 DFFPOSX1_33:CLK 2.5157e-05243 *9:21 2.5157e-05244 *9:22 3.8759999999999995e-07245 *9:23 2.5157e-05246 DFFPOSX1_27:CLK 2.88e-08*RES260 DFFPOSX1_14:CLK *9:1 5.0261 *9:1 *9:2 1866.666666666667262 *9:2 BUFX4_7:Y 5.0263 DFFPOSX1_28:CLK *9:3 5.0264 *9:3 *9:4 5.0265 *9:4 *9:5 1120.0000000000002266 *9:5 *9:6 5.0267 *9:6 *9:7 1166.666666666667268 *9:7 BUFX4_7:Y 5.0269 DFFPOSX1_26:CLK *9:8 5.0270 *9:8 *9:6 4666.666666666668271 DFFPOSX1_24:CLK *9:9 5.0272 *9:9 *9:10 3966.6666666666674273 *9:10 *9:11 5.0274 *9:11 DFFPOSX1_28:CLK 81.66666666666667275 DFFPOSX1_45:CLK *9:12 5.0276 *9:12 *9:13 1633.3333333333337277 *9:13 DFFPOSX1_24:CLK 5.0278 DFFPOSX1_24:CLK DFFPOSX1_24:CLK 35.00000000000001279 DFFPOSX1_51:CLK *9:14 186.6666666666667280 *9:14 *9:15 5.0281 *9:15 *9:12 4900.000000000001282 DFFPOSX1_33:CLK *9:16 5.0283 *9:16 *9:17 5.0284 *9:17 *9:18 3360.000000000001285 *9:18 *9:13 5.0286 DFFPOSX1_27:CLK *9:19 5.0287 *9:19 *9:20 1400.0000000000002288 *9:20 DFFPOSX1_33:CLK 5.0289 DFFPOSX1_16:CLK *9:21 5.0290 *9:21 *9:22 4433.333333333334291 *9:22 *9:23 5.0292 *9:23 DFFPOSX1_27:CLK 186.6666666666667*END*D_NET *10 0.0005808538000000002*CONN*I DFFPOSX1_6:CLK I*I DFFPOSX1_3:CLK I*I DFFPOSX1_11:CLK I*I DFFPOSX1_10:CLK I*I DFFPOSX1_7:CLK I*I DFFPOSX1_5:CLK I*I DFFPOSX1_8:CLK I*I DFFPOSX1_9:CLK I*I DFFPOSX1_1:CLK I*I BUFX4_8:Y O*CAP247 *10:1 2.53202e-05248 *10:2 4.0799999999999995e-08249 *10:3 1.632e-08250 *10:4 3.2639999999999996e-07251 BUFX4_8:Y 2.5157e-05252 *10:5 2.5157e-05253 *10:6 2.5157e-05254 *10:7 2.5157e-05255 *10:8 9.407999999999998e-08256 *10:9 2.5157e-05257 *10:10 2.5157e-05258 *10:11 4.0799999999999995e-08259 *10:12 2.5157e-05260 *10:13 1.3439999999999999e-07261 *10:14 2.5157e-05262 *10:15 4.0799999999999995e-08263 DFFPOSX1_7:CLK 2.51588e-05264 *10:16 2.5157e-05265 *10:17 2.535188e-05266 *10:18 6.719999999999999e-08267 *10:19 2.5157e-05268 *10:20 1.4279999999999998e-07269 DFFPOSX1_8:CLK 2.51588e-05270 *10:21 2.5157e-05271 *10:22 2.5157e-05272 *10:23 2.5157e-05273 *10:24 1.2239999999999998e-07274 DFFPOSX1_6:CLK 2.5157e-05275 *10:25 2.5157e-05276 *10:26 6.527999999999999e-07277 *10:27 2.5157e-05278 *10:28 2.5157e-05279 *10:29 6.119999999999999e-08280 *10:30 2.5157e-05281 *10:31 1.4111999999999998e-07282 *10:32 2.5157e-05*RES293 DFFPOSX1_1:CLK *10:1 5.0294 *10:1 *10:2 466.66666666666674295 *10:2 *10:3 186.6666666666667296 *10:3 *10:4 3733.333333333334297 *10:4 BUFX4_8:Y 5.0298 DFFPOSX1_11:CLK *10:5 5.0299 *10:5 *10:1 1866.666666666667300 DFFPOSX1_7:CLK *10:6 5.0301 *10:6 *10:7 5.0302 *10:7 *10:8 2613.3333333333335303 *10:8 *10:9 5.0304 DFFPOSX1_8:CLK *10:10 5.0305 *10:10 *10:11 466.66666666666674306 *10:11 *10:12 5.0307 *10:12 *10:13 3733.333333333334308 *10:13 *10:14 5.0309 *10:14 *10:15 466.66666666666674310 *10:15 DFFPOSX1_7:CLK 5.0311 DFFPOSX1_7:CLK DFFPOSX1_7:CLK 11.66666666666667312 DFFPOSX1_9:CLK *10:16 5.0313 *10:16 *10:17 5.0314 *10:17 *10:18 1866.666666666667315 *10:18 *10:19 5.0316 *10:19 *10:20 1633.3333333333337317 *10:20 DFFPOSX1_8:CLK 5.0318 DFFPOSX1_8:CLK DFFPOSX1_8:CLK 11.66666666666667319 DFFPOSX1_6:CLK *10:21 5.0320 *10:21 *10:22 5.0321 *10:22 *10:17 5413.333333333334322 DFFPOSX1_10:CLK *10:23 5.0323 *10:23 *10:24 1400.0000000000002324 *10:24 DFFPOSX1_6:CLK 5.0325 DFFPOSX1_3:CLK *10:25 5.0326 *10:25 *10:26 7466.666666666668327 *10:26 *10:27 5.0328 DFFPOSX1_5:CLK *10:28 5.0329 *10:28 *10:29 700.0000000000001330 *10:29 *10:30 5.0331 *10:30 *10:31 3920.000000000001332 *10:31 *10:32 5.0*END*D_NET *11 0.0004541381999999999*CONN*I DFFPOSX1_40:CLK I*I DFFPOSX1_25:CLK I*I DFFPOSX1_41:CLK I*I DFFPOSX1_44:CLK I*I DFFPOSX1_39:CLK I*I DFFPOSX1_20:CLK I*I DFFPOSX1_19:CLK I*I DFFPOSX1_38:CLK I*I DFFPOSX1_43:CLK I*I BUFX4_9:Y O*CAP283 *11:1 2.54018e-05284 *11:2 4.0799999999999995e-08285 *11:3 2.527124e-05286 *11:4 1.6799999999999997e-07287 *11:5 2.5157e-05288 *11:6 8.159999999999999e-08289 BUFX4_9:Y 2.5157e-05290 *11:7 2.5157e-05291 *11:9 1.8e-09292 *11:10 2.88e-08293 *11:11 1.8e-09294 *11:12 2.5157e-05295 *11:13 1.2239999999999998e-07296 DFFPOSX1_44:CLK 2.5157e-05297 *11:14 2.5157e-05298 *11:15 4.0799999999999995e-08299 *11:16 2.5157e-05300 *11:17 2.5157e-05301 *11:18 1.836e-07302 *11:19 2.5157e-05303 DFFPOSX1_39:CLK 1.2599999999999999e-08304 *11:20 5.0314e-05305 *11:21 1.2239999999999998e-07306 DFFPOSX1_40:CLK 2.5157e-05307 *11:22 2.5157e-05308 *11:23 4.0799999999999995e-08309 *11:24 2.5157e-05310 *11:25 2.5157e-05311 *11:26 2.0399999999999997e-08312 *11:27 2.5157e-05313 *11:28 8.736e-08*RES333 DFFPOSX1_41:CLK *11:1 5.0334 *11:1 *11:2 466.66666666666674335 *11:2 *11:3 5.0336 *11:3 *11:4 2053.333333333334337 *11:4 *11:5 5.0338 *11:5 *11:6 933.3333333333335339 *11:6 BUFX4_9:Y 5.0340 DFFPOSX1_38:CLK *11:7 5.0341 *11:7 *11:1 2800.0000000000005342 *11:8 *11:9 11.66666666666667343 *11:9 *11:10 186.6666666666667344 *11:10 *11:11 11.66666666666667345 DFFPOSX1_25:CLK *11:12 5.0346 *11:12 *11:13 1400.0000000000002347 *11:13 DFFPOSX1_44:CLK 5.0348 DFFPOSX1_39:CLK *11:14 5.0349 *11:14 *11:15 466.66666666666674350 *11:15 *11:16 5.0351 *11:16 *11:4 2613.3333333333335352 DFFPOSX1_40:CLK *11:17 5.0353 *11:17 *11:18 2100.0000000000005354 *11:18 *11:19 5.0355 *11:19 DFFPOSX1_39:CLK 81.66666666666667356 DFFPOSX1_19:CLK *11:20 5.0357 *11:20 *11:21 1400.0000000000002358 *11:21 DFFPOSX1_40:CLK 5.0359 DFFPOSX1_43:CLK *11:22 5.0360 *11:22 *11:23 466.66666666666674361 *11:23 *11:24 5.0362 *11:24 *11:3 3173.333333333334363 DFFPOSX1_20:CLK *11:25 5.0364 *11:25 *11:26 233.33333333333337365 *11:26 *11:27 5.0366 *11:27 *11:28 2426.666666666667367 *11:28 *11:20 5.0*END*D_NET *12 0.00045440807999999996*CONN*I DFFPOSX1_17:CLK I*I DFFPOSX1_18:CLK I*I DFFPOSX1_2:CLK I*I DFFPOSX1_29:CLK I*I DFFPOSX1_52:CLK I*I DFFPOSX1_15:CLK I*I DFFPOSX1_53:CLK I*I DFFPOSX1_12:CLK I*I DFFPOSX1_4:CLK I*I BUFX4_10:Y O*CAP314 *12:2 1.8e-09315 BUFX4_10:Y 5.76e-08316 *12:3 2.5157e-05317 *12:4 2.6519999999999997e-07318 DFFPOSX1_53:CLK 2.5157e-05319 *12:5 2.5157e-05320 *12:6 2.523092e-05321 *12:7 8.736e-08322 *12:8 5.0314e-05323 *12:9 2.5157e-05324 *12:10 2.4479999999999997e-07325 DFFPOSX1_18:CLK 2.5157e-05326 *12:11 2.5157e-05327 *12:12 1.02e-07328 *12:13 2.5325e-05329 *12:14 2.5157e-05330 *12:15 2.0399999999999997e-08331 *12:16 2.5157e-05332 *12:17 2.5157e-05333 *12:18 1.2239999999999998e-07334 DFFPOSX1_4:CLK 2.51588e-05335 *12:19 2.88e-08336 *12:20 2.5157e-05337 *12:21 2.6519999999999997e-07338 *12:22 2.5157e-05339 *12:23 2.5157e-05340 *12:24 1.4279999999999998e-07341 DFFPOSX1_17:CLK 2.5157e-05*RES368 *12:1 *12:2 11.66666666666667369 *12:2 BUFX4_10:Y 373.3333333333334370 DFFPOSX1_52:CLK *12:3 5.0371 *12:3 *12:4 3033.333333333334372 *12:4 DFFPOSX1_53:CLK 5.0373 DFFPOSX1_18:CLK *12:5 5.0374 *12:5 *12:6 5.0375 *12:6 *12:7 2426.666666666667376 *12:7 *12:8 5.0377 BUFX4_10:Y *12:8 5.0378 DFFPOSX1_15:CLK *12:9 5.0379 *12:9 *12:10 2800.0000000000005380 *12:10 DFFPOSX1_18:CLK 5.0381 DFFPOSX1_12:CLK *12:11 5.0382 *12:11 *12:12 1166.666666666667383 *12:12 *12:13 5.0384 *12:13 *12:6 2053.333333333334385 DFFPOSX1_4:CLK *12:14 5.0386 *12:14 *12:15 233.33333333333337387 *12:15 *12:16 5.0388 *12:16 *12:13 4666.666666666668389 DFFPOSX1_2:CLK *12:17 5.0390 *12:17 *12:18 1400.0000000000002391 *12:18 DFFPOSX1_4:CLK 5.0392 DFFPOSX1_4:CLK DFFPOSX1_4:CLK 11.66666666666667393 DFFPOSX1_17:CLK *12:19 186.6666666666667394 *12:19 *12:20 5.0395 *12:20 *12:21 3033.333333333334396 *12:21 *12:22 5.0397 DFFPOSX1_29:CLK *12:23 5.0398 *12:23 *12:24 1633.3333333333337399 *12:24 DFFPOSX1_17:CLK 5.0*END*D_NET *13 0.0010362769780000007*CONN*P reset O*I AOI21X1_19:C I*I AOI21X1_17:C I*I AOI21X1_16:C I*I OAI21X1_42:A I*I OAI21X1_33:A I*I AOI22X1_8:A I*I AOI22X1_7:A I*I AOI22X1_6:A I*I AOI22X1_5:A I*I AOI22X1_4:A I*I AOI22X1_3:A I*I AOI22X1_2:A I*I AOI22X1_1:A I*I NAND2X1_10:A I*I INVX8_1:A I*CAP342 *13:1 2.5157e-05343 *13:2 4.0799999999999995e-08344 *13:3 2.537204e-05345 *13:4 2.6879999999999997e-07346 *13:5 2.56466e-05347 *13:6 6.119999999999999e-08348 INVX8_1:A 2.5157e-05349 *13:7 2.5157e-05350 *13:8 4.0799999999999995e-08351 *13:9 2.528468e-05352 *13:10 2.54834e-05353 *13:11 3.672e-07354 *13:12 2.5157e-05355 *13:13 2.5259e-05356 *13:14 4.4879999999999994e-07357 *13:15 2.5157e-05358 *13:16 2.5565e-05359 *13:17 8.159999999999999e-08360 *13:18 2.5157e-05361 *13:19 5.0314e-05362 *13:20 2.5157e-05363 *13:21 4.0799999999999995e-08364 *13:22 2.5157e-05365 *13:23 1.0079999999999999e-07366 *13:24 2.5157e-05367 *13:25 3.2639999999999996e-07368 *13:26 2.5157e-05369 *13:27 1.344e-08370 *13:28 2.5157e-05371 *13:29 2.5157e-05372 *13:30 1.02e-07373 *13:31 2.5157e-05374 *13:32 2.517044e-05375 *13:33 2.5157e-05376 *13:34 2.5157e-05377 *13:35 2.0399999999999997e-08378 *13:36 2.5157e-05379 *13:37 2.0159999999999997e-08380 *13:38 2.5157e-05381 *13:39 1.152e-07382 *13:40 5.0314e-05383 *13:41 8.159999999999999e-08384 *13:42 2.5157e-05385 *13:43 1.0079999999999999e-07386 *13:44 2.5157e-05387 *13:45 2.5157e-05388 *13:46 2.517716e-05389 *13:47 3.3599999999999996e-08390 *13:48 1.4269799999999997e-07391 *13:49 2.5157e-05392 *13:50 2.5157e-05393 *13:51 8.159999999999999e-08394 *13:52 5.0314e-05395 *13:53 1.344e-08396 *13:54 2.5157e-05397 *13:55 4.08e-07398 *13:56 2.5157e-05399 *13:57 2.5157e-05400 *13:58 2.5157e-05401 *13:59 6.72e-09402 *13:60 2.5157e-05403 *13:61 2.208e-07*RES400 AOI22X1_8:A *13:1 5.0401 *13:1 *13:2 466.66666666666674402 *13:2 *13:3 5.0403 *13:3 *13:4 4480.000000000001404 *13:4 *13:5 5.0405 *13:5 *13:6 700.0000000000001406 *13:6 INVX8_1:A 5.0407 AOI22X1_6:A *13:7 5.0408 *13:7 *13:8 466.66666666666674409 *13:8 *13:9 5.0410 *13:9 *13:3 5973.333333333335411 AOI22X1_3:A *13:10 5.0412 *13:10 *13:11 4200.000000000001413 *13:11 *13:12 5.0414 AOI22X1_7:A *13:13 5.0415 *13:13 *13:14 5133.333333333334416 *13:14 *13:15 5.0417 AOI21X1_19:C *13:16 5.0418 *13:16 *13:17 933.3333333333335419 *13:17 *13:18 5.0