*SPEF "IEEE 1481-1998"*DESIGN "crc32"*DATE "Mon Dec 16 21:45:34 2019"*VENDOR "ISPD 2013 Contest"*PROGRAM "Benchmark Parasitic Generator"*VERSION "0.0"*DESIGN_FLOW "PIN_CAP NONE"*DIVIDER /*DELIMITER :*BUS_DELIMITER []*T_UNIT 1.00000 NS*C_UNIT 1.00000 PF*R_UNIT 1.00000 OHM*L_UNIT 1.00000 HENRY*NAME_MAP*0 _539__31_*1 _539__31_bF_buf3*2 _539__31_bF_buf2*3 _539__31_bF_buf1*4 _539__31_bF_buf0*5 _539__28_*6 _539__28_bF_buf3*7 _539__28_bF_buf2*8 _539__28_bF_buf1*9 _539__28_bF_buf0*10 clk*11 clk_bF_buf4*12 clk_bF_buf3*13 clk_bF_buf2*14 clk_bF_buf1*15 clk_bF_buf0*16 crc_en*17 crc_en_bF_buf4*18 crc_en_bF_buf3*19 crc_en_bF_buf2*20 crc_en_bF_buf1*21 crc_en_bF_buf0*22 _540_*23 _540__bF_buf4*24 _540__bF_buf3*25 _540__bF_buf2*26 _540__bF_buf1*27 _540__bF_buf0*28 _539__30_*29 _539__30_bF_buf3*30 _539__30_bF_buf2*31 _539__30_bF_buf1*32 _539__30_bF_buf0*33 data_in[3]*34 data_in_3_bF_buf3*35 data_in_3_bF_buf2*36 data_in_3_bF_buf1*37 data_in_3_bF_buf0*38 _516_*39 _516__bF_buf5*40 _516__bF_buf4*41 _516__bF_buf3*42 _516__bF_buf2*43 _516__bF_buf1*44 _516__bF_buf0*45 _539__29_*46 _539__29_bF_buf3*47 _539__29_bF_buf2*48 _539__29_bF_buf1*49 _539__29_bF_buf0*50 _524_*51 _527_*52 _533_*53 _536_*54 _537_*55 _538_*56 _535_*57 _1_*58 _534_*59 _532_*60 _2_*61 _3_*62 data_in[6]*63 data_in[7]*64 _4_*65 _5_*66 _6_*67 _7_*68 _8_*69 _9_*70 _10_*71 data_in[1]*72 _11_*73 _539__24_*74 _12_*75 _13_*76 _14_*77 _15_*78 _16_*79 _17_*80 _18_*81 _19_*82 _20_*83 _521_*84 _0__1_*85 _539__2_*86 _21_*87 _539__26_*88 data_in[2]*89 _22_*90 _23_*91 _24_*92 _25_*93 _26_*94 _27_*95 _0__2_*96 _539__3_*97 _28_*98 _29_*99 _539__25_*100 _30_*101 _530_*102 _31_*103 _32_*104 _33_*105 _34_*106 _35_*107 _36_*108 _37_*109 _38_*110 _39_*111 _539__27_*112 _40_*113 _41_*114 _42_*115 _43_*116 _44_*117 _45_*118 _46_*119 _47_*120 _48_*121 _49_*122 _50_*123 _51_*124 _52_*125 _53_*126 _54_*127 _55_*128 _56_*129 _0__3_*130 _539__4_*131 _57_*132 data_in[0]*133 _58_*134 _59_*135 _60_*136 _61_*137 _62_*138 _63_*139 _64_*140 _65_*141 _66_*142 _67_*143 _68_*144 _69_*145 _70_*146 _71_*147 _72_*148 data_in[4]*149 _73_*150 _74_*151 _75_*152 _76_*153 _77_*154 _78_*155 _79_*156 _80_*157 _81_*158 _82_*159 _83_*160 _84_*161 _85_*162 _86_*163 _87_*164 _88_*165 _89_*166 _90_*167 _91_*168 _92_*169 _93_*170 _94_*171 _0__4_*172 _539__5_*173 _95_*174 _522_*175 _523_*176 _96_*177 _97_*178 _98_*179 _99_*180 _100_*181 _101_*182 _102_*183 _103_*184 _104_*185 _105_*186 _106_*187 _539__0_*188 crc_out[0]*189 _539__1_*190 crc_out[1]*191 crc_out[2]*192 crc_out[3]*193 crc_out[4]*194 crc_out[5]*195 _539__6_*196 crc_out[6]*197 _539__7_*198 crc_out[7]*199 _539__8_*200 crc_out[8]*201 _539__9_*202 crc_out[9]*203 _539__10_*204 crc_out[10]*205 _539__11_*206 crc_out[11]*207 _539__12_*208 crc_out[12]*209 _539__13_*210 crc_out[13]*211 _539__14_*212 crc_out[14]*213 _539__15_*214 crc_out[15]*215 _539__16_*216 crc_out[16]*217 _539__17_*218 crc_out[17]*219 _539__18_*220 crc_out[18]*221 _539__19_*222 crc_out[19]*223 _539__20_*224 crc_out[20]*225 _539__21_*226 crc_out[21]*227 _539__22_*228 crc_out[22]*229 _539__23_*230 crc_out[23]*231 crc_out[24]*232 crc_out[25]*233 crc_out[26]*234 crc_out[27]*235 crc_out[28]*236 crc_out[29]*237 crc_out[30]*238 crc_out[31]*239 _0__0_*240 vdd*241 _0__5_*242 _0__6_*243 _0__7_*244 _0__8_*245 _0__9_*246 _0__10_*247 _0__11_*248 _0__12_*249 _0__13_*250 _0__14_*251 _0__15_*252 _0__16_*253 _0__17_*254 _0__18_*255 _0__19_*256 _0__20_*257 _0__21_*258 _0__22_*259 _0__23_*260 _0__24_*261 _0__25_*262 _0__26_*263 _0__27_*264 _0__28_*265 _0__29_*266 _0__30_*267 _0__31_*268 _107_*269 _108_*270 _109_*271 _110_*272 _111_*273 _112_*274 _113_*275 _114_*276 _115_*277 _116_*278 _117_*279 data_in[5]*280 _118_*281 _119_*282 _120_*283 _529_*284 _121_*285 _525_*286 _122_*287 _123_*288 _124_*289 _125_*290 _126_*291 _127_*292 _128_*293 _129_*294 _130_*295 _131_*296 _132_*297 _133_*298 _134_*299 _135_*300 _136_*301 _137_*302 _138_*303 _139_*304 _140_*305 _141_*306 _142_*307 _143_*308 _144_*309 _145_*310 _146_*311 _147_*312 _148_*313 _149_*314 _150_*315 _151_*316 _152_*317 _153_*318 _154_*319 _155_*320 _156_*321 _157_*322 _158_*323 _159_*324 _160_*325 _161_*326 _162_*327 _163_*328 _164_*329 _165_*330 _166_*331 _167_*332 _168_*333 _169_*334 _170_*335 _171_*336 _172_*337 _173_*338 _174_*339 _175_*340 _176_*341 _177_*342 _178_*343 _179_*344 _180_*345 _181_*346 _182_*347 _183_*348 _184_*349 _185_*350 _186_*351 _187_*352 _188_*353 _189_*354 _190_*355 _191_*356 _192_*357 _193_*358 _194_*359 _195_*360 _196_*361 _197_*362 _198_*363 _199_*364 _200_*365 _201_*366 _202_*367 _203_*368 _204_*369 _205_*370 _206_*371 _207_*372 _208_*373 _209_*374 _210_*375 _211_*376 _212_*377 _213_*378 _214_*379 _215_*380 _216_*381 _217_*382 _218_*383 _219_*384 _220_*385 _221_*386 _222_*387 _223_*388 _224_*389 _225_*390 _226_*391 _227_*392 _228_*393 _229_*394 _230_*395 _231_*396 _232_*397 _233_*398 _234_*399 _235_*400 _236_*401 _237_*402 _238_*403 _239_*404 _240_*405 _241_*406 _242_*407 _243_*408 _244_*409 _245_*410 _246_*411 _247_*412 _248_*413 _249_*414 _250_*415 _251_*416 _252_*417 _253_*418 _254_*419 _255_*420 _256_*421 _257_*422 _258_*423 _259_*424 _260_*425 _261_*426 _262_*427 _263_*428 _264_*429 _265_*430 _266_*431 _267_*432 _268_*433 _269_*434 _270_*435 _271_*436 _272_*437 _273_*438 _274_*439 _275_*440 _276_*441 _277_*442 _278_*443 _279_*444 _280_*445 _281_*446 _282_*447 _283_*448 _284_*449 _285_*450 _286_*451 _287_*452 _288_*453 _289_*454 _290_*455 _291_*456 _292_*457 _293_*458 _294_*459 _295_*460 _296_*461 _297_*462 _298_*463 _299_*464 _300_*465 _301_*466 _302_*467 _303_*468 _304_*469 _305_*470 _306_*471 _307_*472 _308_*473 _309_*474 _310_*475 _311_*476 _312_*477 _313_*478 _314_*479 _315_*480 _316_*481 _317_*482 _318_*483 _319_*484 _320_*485 _321_*486 _322_*487 _323_*488 _324_*489 _325_*490 _326_*491 _327_*492 _328_*493 _329_*494 _330_*495 _331_*496 _332_*497 _333_*498 _334_*499 _335_*500 _336_*501 _337_*502 _338_*503 _339_*504 _340_*505 _341_*506 _342_*507 _343_*508 _344_*509 _345_*510 _346_*511 _347_*512 _348_*513 _349_*514 _350_*515 _351_*516 _352_*517 _353_*518 _354_*519 _355_*520 _356_*521 _357_*522 _358_*523 _359_*524 _360_*525 _361_*526 _362_*527 _363_*528 _364_*529 _365_*530 _366_*531 _367_*532 _368_*533 _369_*534 _370_*535 _371_*536 _372_*537 _373_*538 _374_*539 _375_*540 _376_*541 _377_*542 _378_*543 _379_*544 _380_*545 _381_*546 _382_*547 _383_*548 _384_*549 _385_*550 _386_*551 _387_*552 _388_*553 _389_*554 _390_*555 _391_*556 _392_*557 _393_*558 _394_*559 _395_*560 _396_*561 _397_*562 _398_*563 _399_*564 _400_*565 _401_*566 _402_*567 _403_*568 _404_*569 _405_*570 _406_*571 _407_*572 _408_*573 _409_*574 _410_*575 _411_*576 _412_*577 _413_*578 _414_*579 _415_*580 _416_*581 _417_*582 _418_*583 _419_*584 _420_*585 _421_*586 _422_*587 _423_*588 _424_*589 _425_*590 _426_*591 _427_*592 _428_*593 _517_*594 _429_*595 _430_*596 _431_*597 _432_*598 _433_*599 _434_*600 _435_*601 _436_*602 _437_*603 _438_*604 _439_*605 _440_*606 _441_*607 _518_*608 _442_*609 _443_*610 _444_*611 _445_*612 _446_*613 _447_*614 _448_*615 _449_*616 _450_*617 _451_*618 _452_*619 _453_*620 _454_*621 _455_*622 _456_*623 _457_*624 _458_*625 _459_*626 _460_*627 _461_*628 _462_*629 _463_*630 _464_*631 _465_*632 _466_*633 _526_*634 _467_*635 _468_*636 _469_*637 _470_*638 _471_*639 _472_*640 _473_*641 _474_*642 _475_*643 _476_*644 _477_*645 _478_*646 _479_*647 _480_*648 _481_*649 _482_*650 _483_*651 _484_*652 _485_*653 _486_*654 _487_*655 _488_*656 _489_*657 _490_*658 _491_*659 _492_*660 _493_*661 _494_*662 _495_*663 _496_*664 _497_*665 _498_*666 _499_*667 _500_*668 _501_*669 _502_*670 _503_*671 _504_*672 _505_*673 _506_*674 _507_*675 _508_*676 _509_*677 _510_*678 _511_*679 _512_*680 _513_*681 _514_*682 _515_*683 rst*684 _519_*685 _520_*686 _528_*687 _531_*D_NET *0 0.00032835811999999996*CONN*I DFFSR_32:Q O*I BUFX4_4:A I*I BUFX4_3:A I*I BUFX4_2:A I*I BUFX4_1:A I*CAP0 *0:1 2.52386e-051 *0:2 1.4279999999999998e-072 *0:3 2.5157e-053 *0:4 1.2096e-074 *0:5 2.5157e-055 *0:6 8.159999999999999e-086 BUFX4_1:A 2.5157e-057 *0:7 2.5157e-058 *0:8 2.0399999999999997e-089 *0:9 2.5157e-0510 *0:10 2.5157e-0511 *0:11 1.0559999999999999e-0712 *0:12 2.538548e-0513 *0:13 1.2768e-0714 *0:14 2.5157e-0515 *0:15 2.5157e-0516 *0:16 8.159999999999999e-0817 *0:17 2.5157e-0518 *0:18 2.5157e-0519 *0:19 3.2639999999999996e-0720 *0:20 2.5157e-05*RES0 BUFX4_2:A *0:1 5.01 *0:1 *0:2 408.33333333333342 *0:2 *0:3 5.03 *0:3 *0:4 840.00000000000024 *0:4 *0:5 5.05 *0:5 *0:6 233.333333333333376 *0:6 BUFX4_1:A 5.07 DFFSR_32:Q *0:7 5.08 *0:7 *0:8 58.333333333333349 *0:8 *0:9 5.010 *0:9 *0:10 5.011 *0:10 *0:11 183.3333333333333412 *0:11 *0:12 5.013 *0:12 *0:13 886.666666666666714 *0:13 *0:14 5.015 *0:14 *0:1 233.3333333333333716 BUFX4_4:A *0:15 5.017 *0:15 *0:16 233.3333333333333718 *0:16 *0:17 5.019 *0:17 *0:12 1586.66666666666720 BUFX4_3:A *0:18 5.021 *0:18 *0:19 933.333333333333522 *0:19 *0:20 5.0*END*D_NET *1 0.0003787244399999999*CONN*I NAND2X1_159:A I*I XOR2X1_18:A I*I XNOR2X1_42:B I*I XOR2X1_8:B I*I XNOR2X1_10:B I*I BUFX4_1:Y O*CAP21 *1:1 2.88e-0822 *1:2 2.5157e-0523 *1:3 2.0399999999999997e-0824 *1:4 1.632e-0825 *1:5 4.895999999999999e-0726 BUFX4_1:Y 2.5157e-0527 *1:6 2.54018e-0528 *1:7 4.0799999999999995e-0829 *1:8 2.5157e-0530 *1:9 1.5455999999999998e-0731 *1:10 2.5157e-0532 *1:11 2.5157e-0533 *1:12 2.0399999999999997e-0834 *1:13 2.5157e-0535 *1:14 2.0159999999999997e-0836 *1:15 2.5157e-0537 *1:16 2.5157e-0538 *1:17 2.0399999999999997e-0839 *1:18 2.5157e-0540 *1:19 1.0079999999999999e-0741 *1:20 2.5157e-0542 *1:21 2.5157e-0543 *1:22 2.0399999999999997e-0844 *1:23 2.5157e-0545 *1:24 2.5157e-0546 *1:25 1.9199999999999997e-0747 *1:26 2.5157e-05*RES23 NAND2X1_159:A *1:1 46.6666666666666824 *1:1 *1:2 5.025 *1:2 *1:3 58.3333333333333426 *1:3 *1:4 46.6666666666666827 *1:4 *1:5 1400.000000000000228 *1:5 BUFX4_1:Y 5.029 XNOR2X1_10:B *1:6 5.030 *1:6 *1:7 116.6666666666666931 *1:7 *1:8 5.032 *1:8 *1:9 1073.333333333333533 *1:9 *1:10 5.034 XNOR2X1_42:B *1:11 5.035 *1:11 *1:12 58.3333333333333436 *1:12 *1:13 5.037 *1:13 *1:14 140.0000000000000338 *1:14 *1:15 5.039 *1:15 *1:6 700.000000000000140 XOR2X1_8:B *1:16 5.041 *1:16 *1:17 58.3333333333333442 *1:17 *1:18 5.043 *1:18 *1:19 700.000000000000144 *1:19 *1:20 5.045 XOR2X1_18:A *1:21 5.046 *1:21 *1:22 58.3333333333333447 *1:22 *1:23 5.048 *1:23 *1:24 5.049 *1:24 *1:25 333.3333333333333750 *1:25 *1:26 5.0*END*D_NET *2 0.00032821603999999994*CONN*I OR2X2_5:A I*I XNOR2X1_31:B I*I AND2X2_10:A I*I NOR2X1_30:A I*I NAND2X1_118:A I*I BUFX4_2:Y O*CAP48 *2:1 2.5157e-0549 *2:2 3.2639999999999996e-0750 *2:3 2.5157e-0551 *2:4 2.688e-0852 *2:5 2.5157e-0553 *2:6 4.0799999999999995e-0854 BUFX4_2:Y 2.5157e-0555 *2:7 2.5259e-0556 *2:8 4.0799999999999995e-0857 *2:9 2.5157e-0558 *2:10 1.1423999999999998e-0759 *2:11 2.5157e-0560 *2:12 2.5157e-0561 *2:13 2.0399999999999997e-0862 *2:14 1.632e-0863 *2:15 2.5157e-0564 *2:16 2.4479999999999997e-0765 *2:17 2.5157e-0566 *2:18 2.5157e-0567 *2:19 4.0799999999999995e-0868 *2:20 2.5157e-0569 *2:21 2.0159999999999998e-0770 *2:22 2.5157e-05*RES51 NAND2X1_118:A *2:1 5.052 *2:1 *2:2 933.333333333333553 *2:2 *2:3 5.054 *2:3 *2:4 186.666666666666755 *2:4 *2:5 5.056 *2:5 *2:6 116.6666666666666957 *2:6 BUFX4_2:Y 5.058 AND2X2_10:A *2:7 5.059 *2:7 *2:8 116.6666666666666960 *2:8 *2:9 5.061 *2:9 *2:10 793.333333333333562 *2:10 *2:11 5.063 NOR2X1_30:A *2:12 5.064 *2:12 *2:13 58.3333333333333465 *2:13 *2:14 46.6666666666666866 *2:14 *2:7 291.6666666666667467 OR2X2_5:A *2:15 5.068 *2:15 *2:16 700.000000000000169 *2:16 *2:17 5.070 XNOR2X1_31:B *2:18 5.071 *2:18 *2:19 116.6666666666666972 *2:19 *2:20 5.073 *2:20 *2:21 1400.000000000000274 *2:21 *2:22 5.0*END*D_NET *3 0.00022706508*CONN*I NAND2X1_40:A I*I NAND2X1_37:A I*I BUFX2_37:A I*I OR2X2_4:A I*I BUFX4_3:Y O*CAP71 *3:1 2.5157e-0572 *3:2 1.4279999999999998e-0773 *3:3 2.5157e-0574 BUFX4_3:Y 2.88e-0875 NAND2X1_40:A 2.88e-0876 *3:4 2.5157e-0577 *3:5 2.5157e-0578 *3:6 2.0159999999999997e-0879 *3:7 2.5157e-0580 *3:8 2.5157e-0581 *3:9 4.0799999999999995e-0882 *3:10 2.5157e-0583 *3:11 6.72e-0984 *3:12 2.5157e-0585 *3:13 3.8399999999999994e-0786 *3:14 2.5157e-05*RES75 NAND2X1_40:A *3:1 5.076 *3:1 *3:2 408.333333333333477 *3:2 *3:3 5.078 *3:3 BUFX4_3:Y 46.6666666666666879 NAND2X1_37:A NAND2X1_40:A 46.6666666666666880 OR2X2_4:A *3:4 5.081 *3:4 *3:5 5.082 *3:5 *3:6 140.0000000000000383 *3:6 *3:7 5.084 BUFX2_37:A *3:8 5.085 *3:8 *3:9 116.6666666666666986 *3:9 *3:10 5.087 *3:10 *3:11 46.6666666666666888 *3:11 *3:12 5.089 *3:12 *3:13 666.666666666666790 *3:13 *3:14 5.0*END*D_NET *4 0.00027733084*CONN*I NAND2X1_2:A I*I INVX1_31:A I*I OAI21X1_5:C I*I NAND2X1_165:A I*I BUFX4_4:Y O*CAP87 *4:1 2.51774e-0588 *4:2 2.5157e-0589 *4:3 7.392e-0890 *4:4 5.0314e-0591 *4:5 2.5157e-0592 *4:6 4.0799999999999995e-0893 *4:7 2.516372e-0594 *4:8 2.6208e-0795 *4:9 2.5157e-0596 *4:10 2.5157e-0597 *4:11 1.02e-0798 *4:12 2.5157e-0599 *4:13 2.5157e-05100 *4:14 1.632e-08101 *4:15 8.159999999999999e-08102 *4:16 2.5157e-05*RES91 INVX1_31:A *4:1 5.092 *4:1 *4:2 5.093 *4:2 *4:3 513.333333333333594 *4:3 *4:4 5.095 BUFX4_4:Y *4:4 5.096 NAND2X1_2:A *4:5 5.097 *4:5 *4:6 116.6666666666666998 *4:6 *4:7 5.099 *4:7 *4:8 1820.0000000000002100 *4:8 *4:9 5.0101 *4:9 *4:1 58.33333333333334102 NAND2X1_165:A *4:10 5.0103 *4:10 *4:11 291.66666666666674104 *4:11 *4:12 5.0105 *4:12 *4:7 46.66666666666668106 OAI21X1_5:C *4:13 5.0107 *4:13 *4:14 46.66666666666668108 *4:14 *4:15 233.33333333333337109 *4:15 *4:16 5.0*END*D_NET *5 0.00030313692*CONN*I DFFSR_29:Q O*I BUFX4_8:A I*I BUFX4_7:A I*I BUFX4_6:A I*I BUFX4_5:A I*CAP103 *5:1 2.5157e-05104 *5:2 2.04e-07105 *5:3 2.5157e-05106 *5:4 1.6799999999999997e-07107 *5:5 2.5157e-05108 *5:6 2.04e-07109 BUFX4_5:A 2.5157e-05110 *5:7 2.5157e-05111 *5:8 2.5157e-05112 *5:9 4.031999999999999e-08113 *5:10 2.5157e-05114 *5:11 2.592e-07115 *5:12 2.5157e-05116 *5:13 2.2175999999999997e-07117 *5:14 2.5157e-05118 DFFSR_29:Q 1.422e-07119 *5:15 2.5157e-05120 *5:16 2.5157e-05121 *5:17 1.344e-08122 *5:18 2.5157e-05*RES110 BUFX4_7:A *5:1 5.0111 *5:1 *5:2 583.3333333333335112 *5:2 *5:3 5.0113 *5:3 *5:4 1166.666666666667114 *5:4 *5:5 5.0115 *5:5 *5:6 583.3333333333335116 *5:6 BUFX4_5:A 5.0117 DFFSR_29:Q *5:7 5.0118 *5:7 *5:8 5.0119 *5:8 *5:9 280.00000000000006120 *5:9 *5:10 5.0121 *5:10 *5:11 50.0122 *5:11 *5:12 5.0123 *5:12 *5:13 1540.0000000000002124 *5:13 *5:14 5.0125 BUFX4_6:A DFFSR_29:Q 230.4166666666667126 BUFX4_8:A *5:15 5.0127 *5:15 *5:16 5.0128 *5:16 *5:17 93.33333333333336129 *5:17 *5:18 5.0130 *5:18 *5:11 400.0*END*D_NET *6 0.00032746051999999994*CONN*I NAND2X1_82:A I*I XNOR2X1_23:B I*I NAND2X1_91:A I*I XNOR2X1_19:A I*I OR2X2_3:B I*I BUFX4_5:Y O*CAP123 *6:2 2.5157e-05124 *6:3 2.0399999999999997e-08125 *6:4 2.5157e-05126 *6:5 8.063999999999999e-08127 *6:6 5.0314e-05128 *6:7 2.5157e-05129 *6:8 1.0199999999999999e-07130 *6:9 2.5157e-05131 *6:10 2.5157e-05132 *6:11 4.0799999999999995e-08133 *6:12 2.518388e-05134 *6:13 4.703999999999999e-08135 *6:14 2.5157e-05136 *6:15 2.5157e-05137 *6:16 4.0799999999999995e-08138 *6:17 2.517716e-05139 *6:18 2.5157e-05140 *6:19 4.0799999999999995e-08141 *6:20 2.5157e-05*RES131 *6:1 *6:2 5.0132 *6:2 *6:3 58.33333333333334133 *6:3 *6:4 5.0134 *6:4 *6:5 140.00000000000003135 *6:5 *6:6 5.0136 BUFX4_5:Y *6:6 5.0137 XNOR2X1_23:B *6:7 5.0138 *6:7 *6:8 58.33333333333334139 *6:8 *6:9 5.0140 *6:9 *6:5 420.0000000000001141 NAND2X1_82:A *6:10 5.0142 *6:10 *6:11 116.66666666666669143 *6:11 *6:12 5.0144 *6:12 *6:13 326.6666666666667145 *6:13 *6:14 5.0146 *6:14 *6:8 233.33333333333337147 OR2X2_3:B *6:15 5.0148 *6:15 *6:16 116.66666666666669149 *6:16 *6:17 5.0150 *6:17 *6:12 186.6666666666667151 NAND2X1_91:A *6:18 5.0152 *6:18 *6:19 116.66666666666669153 *6:19 *6:20 5.0154 *6:20 *6:17 140.00000000000003*END*D_NET *7 0.00022735667999999998*CONN*I NOR2X1_37:B I*I XOR2X1_20:B I*I INVX2_6:A I*I XOR2X1_19:A I*I NOR2X1_34:A I*I BUFX4_6:Y O*CAP142 BUFX4_6:Y 2.52146e-05143 *7:1 2.5157e-05144 *7:2 6.119999999999999e-08145 *7:3 2.517716e-05146 *7:4 4.031999999999999e-08147 *7:5 2.5157e-05148 *7:6 2.04e-07149 *7:7 1.632e-08150 *7:8 8.159999999999999e-08151 *7:9 2.5157e-05152 *7:10 8.159999999999999e-08153 *7:11 2.528468e-05154 *7:12 2.52794e-05155 *7:13 1.02e-07156 *7:14 2.5157e-05157 *7:15 2.88e-08158 *7:16 2.5157e-05*RES155 INVX2_6:A BUFX4_6:Y 93.33333333333336156 NOR2X1_37:B *7:1 5.0157 *7:1 *7:2 175.00000000000003158 *7:2 *7:3 5.0159 *7:3 *7:4 280.00000000000006160 *7:4 *7:5 5.0161 *7:5 *7:6 583.3333333333335162 *7:6 *7:7 46.66666666666668163 *7:7 *7:8 233.33333333333337164 *7:8 BUFX4_6:Y 5.0165 XOR2X1_20:B *7:9 5.0166 *7:9 *7:10 233.33333333333337167 *7:10 *7:11 5.0168 *7:11 *7:3 140.00000000000003169 NOR2X1_34:A *7:12 5.0170 *7:12 *7:13 291.66666666666674171 *7:13 *7:14 5.0172 *7:14 *7:11 886.6666666666667173 XOR2X1_19:A *7:15 46.66666666666668174 *7:15 *7:16 5.0175 *7:16 *7:12 350.00000000000006*END*D_NET *8 0.0005304054*CONN*I NAND2X1_36:A I*I XOR2X1_7:A I*I NAND2X1_39:B I*I NAND2X1_23:B I*I XOR2X1_26:A I*I BUFX4_7:Y O*CAP159 *8:1 2.5157e-05160 *8:2 2.0399999999999997e-08161 *8:3 2.5157e-05162 *8:4 6.72e-09163 *8:5 2.5157e-05164 *8:6 4.0319999999999996e-07165 *8:7 2.5157e-05166 *8:8 6.72e-09167 *8:9 2.5157e-05168 *8:10 3.06e-07169 BUFX4_7:Y 2.5157e-05170 *8:11 2.5157e-05171 *8:12 1.2239999999999998e-07172 *8:13 2.5157e-05173 *8:14 6.719999999999999e-08174 *8:15 2.5157e-05175 *8:16 4.0799999999999995e-08176 *8:17 2.5157e-05177 *8:18 2.0159999999999997e-08178 *8:19 2.5157e-05179 *8:20 2.88e-08180 *8:21 2.5157e-05181 *8:22 2.2175999999999997e-07182 *8:23 2.5157e-05183 *8:24 2.5157e-05184 *8:25 2.517716e-05185 *8:26 1.6127999999999997e-07186 *8:27 2.5157e-05187 *8:28 2.53406e-05188 *8:29 2.0399999999999997e-08189 *8:30 2.5157e-05190 *8:31 8.399999999999999e-09191 *8:32 2.5157e-05192 *8:33 4.703999999999999e-07193 *8:34 2.5157e-05194 *8:35 2.5157e-05*RES176 XOR2X1_26:A *8:1 5.0177 *8:1 *8:2 58.33333333333334178 *8:2 *8:3 5.0179 *8:3 *8:4 46.66666666666668180 *8:4 *8:5 5.0181 *8:5 *8:6 700.0182 *8:6 *8:7 5.0183 *8:7 *8:8 46.66666666666668184 *8:8 *8:9 5.0185 *8:9 *8:10 875.0000000000001186 *8:10 BUFX4_7:Y 5.0187 NAND2X1_36:A *8:11 5.0188 *8:11 *8:12 350.00000000000006189 *8:12 *8:13 5.0190 *8:13 *8:14 466.66666666666674191 *8:14 *8:15 5.0192 *8:15 *8:16 116.66666666666669193 *8:16 *8:17 5.0194 *8:17 *8:18 140.00000000000003195 *8:18 *8:19 5.0196 *8:19 *8:20 50.0197 *8:20 *8:21 5.0198 *8:21 *8:22 1540.0000000000002199 *8:22 *8:23 5.0200 NAND2X1_39:B *8:24 5.0201 *8:24 *8:25 5.0202 *8:25 *8:26 1120.0000000000002203 *8:26 *8:27 5.0204 NAND2X1_23:B *8:28 5.0205 *8:28 *8:29 58.33333333333334206 *8:29 *8:30 5.0207 *8:30 *8:31 58.33333333333334208 *8:31 *8:32 5.0209 *8:32 *8:33 816.6666666666667210 *8:33 *8:34 5.0211 *8:34 *8:25 140.00000000000003212 XOR2X1_7:A *8:35 5.0213 *8:35 *8:28 525.0000000000001*END*D_NET *9 0.00020172729999999995*CONN*I BUFX2_34:A I*I XOR2X1_11:B I*I XNOR2X1_35:A I*I XNOR2X1_11:B I*I BUFX4_8:Y O*CAP195 BUFX4_8:Y 5.76e-08196 *9:2 2.5157e-05197 *9:3 4.0799999999999995e-08198 *9:4 2.52242e-05199 *9:5 3.3599999999999996e-08200 *9:6 2.5157e-05201 *9:7 1.02e-07202 XNOR2X1_35:A 7.139999999999999e-09203 *9:8 2.5157e-05204 *9:9 6.119999999999999e-08205 *9:10 2.5157e-05206 *9:11 2.5157e-05207 *9:12 8.159999999999999e-08208 *9:13 2.5157e-05209 *9:14 2.0159999999999997e-08210 *9:15 2.5157e-05*RES214 *9:1 BUFX4_8:Y 93.33333333333336215 BUFX2_34:A *9:2 5.0216 *9:2 *9:3 116.66666666666669217 *9:3 *9:4 5.0218 *9:4 *9:5 233.33333333333337219 *9:5 *9:6 5.0220 *9:6 *9:7 291.66666666666674221 *9:7 XNOR2X1_35:A 20.416666666666668222 XOR2X1_11:B *9:8 5.0223 *9:8 *9:9 58.33333333333334224 *9:9 *9:10 5.0225 *9:10 *9:4 466.66666666666674226 XNOR2X1_11:B *9:11 5.0227 *9:11 *9:12 233.33333333333337228 *9:12 *9:13 5.0229 *9:13 *9:14 140.00000000000003230 *9:14 *9:15 5.0231 *9:15 *9:9 116.66666666666669*END*D_NET *10 0.00040454883799999987*CONN*P clk O*I BUFX2_5:A I*I BUFX2_4:A I*I BUFX2_3:A I*I BUFX2_2:A I*I BUFX2_1:A I*CAP211 *10:1 6.7158e-08212 *10:2 2.5157e-05213 *10:3 2.0399999999999997e-08214 BUFX2_1:A 2.5157e-05215 *10:4 2.5157e-05216 *10:5 2.5157e-05217 *10:6 6.72e-09218 *10:7 2.54354e-05219 *10:8 2.8799999999999993e-07220 *10:9 2.5157e-05221 *10:10 2.5157e-05222 *10:11 1.0199999999999999e-07223 *10:12 2.5157e-05224 *10:13 1.6799999999999997e-07225 *10:14 2.5157e-05226 *10:15 2.5157e-05227 *10:16 8.159999999999999e-08228 *10:17 5.0314e-05229 *10:18 4.703999999999999e-08230 *10:19 8.399999999999999e-09231 *10:20 2.2847999999999997e-07232 *10:21 2.5157e-05233 *10:22 2.5157e-05234 *10:23 4.0799999999999995e-08235 *10:24 2.5157e-05236 *10:25 1.8144000000000002e-07237 *10:26 2.5157e-05238 *10:27 5.184e-07*RES232 clk *10:1 233.04166666666669233 *10:1 *10:2 5.0234 *10:2 *10:3 58.33333333333334235 *10:3 BUFX2_1:A 5.0236 BUFX2_2:A *10:4 5.0237 *10:4 *10:5 5.0238 *10:5 *10:6 46.66666666666668239 *10:6 *10:7 5.0240 *10:7 *10:8 500.0241 *10:8 *10:9 5.0242 *10:9 *10:1 233.33333333333337243 BUFX2_4:A *10:10 5.0244 *10:10 *10:11 116.66666666666669245 *10:11 *10:12 5.0246 *10:12 *10:13 1166.666666666667247 *10:13 *10:14 5.0248 *10:14 *10:7 483.3333333333333249 BUFX2_3:A *10:15 5.0250 *10:15 *10:16 233.33333333333337251 *10:16 *10:17 5.0252 *10:17 *10:18 326.6666666666667253 *10:18 *10:19 58.33333333333334254 *10:19 *10:20 1586.666666666667255 *10:20 *10:21 5.0256 *10:21 *10:11 175.00000000000003257 BUFX2_5:A *10:22 5.0258 *10:22 *10:23 116.66666666666669259 *10:23 *10:24 5.0260 *10:24 *10:25 1260.0000000000002261 *10:25 *10:26 5.0262 *10:26 *10:27 900.0000000000001263 *10:27 *10:17 5.0*END*D_NET *11 0.00045504911999999986*CONN*I DFFSR_30:CLK I*I DFFSR_6:CLK I*I DFFSR_13:CLK I*I DFFSR_9:CLK I*I DFFSR_1:CLK I*I DFFSR_21:CLK I*I DFFSR_29:CLK I*I BUFX2_1:Y O*CAP239 *11:1 2.5157e-05240 *11:2 2.534516e-05241 *11:3 4.031999999999999e-08242 *11:4 2.5157e-05243 *11:5 6.935999999999999e-07244 BUFX2_1:Y 2.5157e-05245 *11:6 2.5259e-05246 *11:7 2.538548e-05247 *11:8 2.5157e-05248 *11:9 2.54018e-05249 *11:10 2.5157e-05250 *11:11 2.5259e-05251 *11:12 1.6319999999999998e-07252 *11:13 2.5157e-05253 *11:14 2.688e-08254 *11:15 2.5157e-05255 *11:16 2.52794e-05256 *11:17 2.5157e-05257 *11:18 6.048e-08258 *11:19 2.5157e-05259 *11:20 2.5157e-05260 *11:21 1.836e-07261 *11:22 2.5157e-05262 *11:23 6.719999999999999e-08263 *11:24 2.5157e-05*RES264 DFFSR_21:CLK *11:1 5.0265 *11:1 *11:2 5.0266 *11:2 *11:3 280.00000000000006267 *11:3 *11:4 5.0268 *11:4 *11:5 1983.3333333333337269 *11:5 BUFX2_1:Y 5.0270 DFFSR_1:CLK *11:6 5.0271 *11:6 *11:7 5.0272 *11:7 *11:2 1306.6666666666667273 DFFSR_9:CLK *11:8 5.0274 *11:8 *11:6 291.66666666666674275 DFFSR_6:CLK *11:9 5.0276 *11:9 *11:10 5.0277 *11:10 *11:7 1586.666666666667278 DFFSR_13:CLK *11:11 5.0279 *11:11 *11:12 466.66666666666674280 *11:12 *11:13 5.0281 *11:13 *11:14 186.6666666666667282 *11:14 *11:15 5.0283 *11:15 *11:9 700.0000000000001284 DFFSR_30:CLK *11:16 5.0285 *11:16 *11:17 5.0286 *11:17 *11:18 420.0000000000001287 *11:18 *11:19 5.0288 *11:19 *11:11 291.66666666666674289 DFFSR_29:CLK *11:20 5.0290 *11:20 *11:21 525.0000000000001291 *11:21 *11:22 5.0292 *11:22 *11:23 466.66666666666674293 *11:23 *11:24 5.0294 *11:24 *11:16 350.00000000000006*END*D_NET *12 0.00047945443999999996*CONN*I DFFSR_31:CLK I*I DFFSR_12:CLK I*I DFFSR_19:CLK I*I DFFSR_26:CLK I*I DFFSR_28:CLK I*I DFFSR_11:CLK I*I DFFSR_22:CLK I*I BUFX2_2:Y O*CAP264 *12:1 5.04772e-05265 *12:2 8.159999999999999e-08266 BUFX2_2:Y 5.0314e-05267 *12:3 2.5157e-05268 *12:4 1.836e-07269 *12:5 2.52386e-05270 *12:6 1.4279999999999998e-07271 *12:7 2.5157e-05272 *12:8 2.0159999999999997e-08273 *12:9 2.5157e-05274 *12:10 2.5157e-05275 *12:11 2.5157e-05276 *12:12 1.4111999999999998e-07277 *12:13 2.5259e-05278 *12:14 1.4279999999999998e-07279 *12:15 2.5157e-05280 *12:16 2.5157e-05281 *12:17 8.639999999999999e-08282 *12:18 5.0314e-05283 *12:20 2.53406e-05284 *12:21 2.5157e-05285 *12:22 1.2239999999999998e-07286 *12:23 2.5157e-05287 *12:24 2.0159999999999997e-08288 *12:25 2.5157e-05*RES295 DFFSR_11:CLK *12:1 5.0296 *12:1 *12:2 233.33333333333337297 *12:2 BUFX2_2:Y 5.0298 DFFSR_28:CLK *12:3 5.0299 *12:3 *12:4 525.0000000000001300 *12:4 BUFX2_2:Y 5.0301 DFFSR_22:CLK *12:5 5.0302 *12:5 *12:6 408.3333333333334303 *12:6 *12:7 5.0304 *12:7 *12:8 140.00000000000003305 *12:8 *12:9 5.0306 *12:9 *12:1 466.66666666666674307 DFFSR_31:CLK *12:10 5.0308 *12:10 *12:11 5.0309 *12:11 *12:12 980.0000000000002310 *12:12 *12:1 5.0311 DFFSR_26:CLK *12:13 5.0312 *12:13 *12:14 408.3333333333334313 *12:14 *12:15 5.0314 *12:15 *12:16 5.0315 *12:16 *12:17 150.0316 *12:17 *12:18 5.0317 *12:19 *12:18 5.0318 *12:19 *12:5 233.33333333333337319 DFFSR_19:CLK *12:20 5.0320 *12:20 *12:13 291.66666666666674321 DFFSR_12:CLK *12:21 5.0322 *12:21 *12:22 350.00000000000006323 *12:22 *12:23 5.0324 *12:23 *12:24 140.00000000000003325 *12:24 *12:25 5.0326 *12:25 *12:20 525.0000000000001*END*D_NET *13 0.0005305153199999999*CONN*I DFFSR_16:CLK I*I DFFSR_10:CLK I*I DFFSR_5:CLK I*I DFFSR_3:CLK I*I DFFSR_24:CLK I*I DFFSR_25:CLK I*I BUFX2_3:Y O*CAP289 *13:1 2.5157e-05290 *13:2 2.0399999999999997e-08291 *13:3 2.5157e-05292 *13:4 8.399999999999999e-09293 *13:5 2.5157e-05294 *13:6 1.9199999999999997e-07295 *13:7 2.5157e-05296 *13:8 1.344e-08297 *13:9 2.5157e-05298 *13:10 8.159999999999999e-08299 BUFX2_3:Y 2.5157e-05300 *13:11 2.5157e-05301 *13:12 2.519732e-05302 *13:13 1.0079999999999999e-07303 *13:14 2.5157e-05304 *13:15 1.02e-07305 *13:16 2.5157e-05306 *13:17 2.4864e-07307 *13:18 2.5157e-05308 *13:19 2.5157e-05309 *13:20 2.533844e-05310 *13:21 2.6879999999999997e-07311 *13:22 2.5157e-05312 *13:23 1.4399999999999997e-07313 *13:24 2.5157e-05314 *13:25 2.5157e-05315 *13:26 1.02e-07316 *13:27 2.5157e-05317 *13:28 2.5157e-05318 *13:29 1.4279999999999998e-07319 *13:30 2.5157e-05320 *13:31 1.8815999999999996e-07321 *13:32 2.5157e-05322 *13:33 2.5157e-05323 *13:34 3.672e-07324 *13:35 1.632e-08*RES327 DFFSR_25:CLK *13:1 5.0328 *13:1 *13:2 58.33333333333334329 *13:2 *13:3 5.0330 *13:3 *13:4 58.33333333333334331 *13:4 *13:5 5.0332 *13:5 *13:6 333.33333333333337333 *13:6 *13:7 5.0334 *13:7 *13:8 93.33333333333336335 *13:8 *13:9 5.0336 *13:9 *13:10 233.33333333333337337 *13:10 BUFX2_3:Y 5.0338 DFFSR_3:CLK *13:11 5.0339 *13:11 *13:12 5.0340 *13:12 *13:13 700.0000000000001341 *13:13 *13:14 5.0342 *13:14 *13:15 291.66666666666674343 *13:15 *13:16 5.0344 *13:16 *13:17 1726.6666666666672345 *13:17 *13:18 5.0346 DFFSR_5:CLK *13:19 5.0347 *13:19 *13:20 5.0348 *13:20 *13:21 1866.666666666667349 *13:21 *13:22 5.0350 *13:22 *13:23 250.0351 *13:23 *13:24 5.0352 *13:24 *13:12 280.00000000000006353 DFFSR_10:CLK *13:25 5.0354 *13:25 *13:26 291.66666666666674355 *13:26 *13:27 5.0356 *13:27 *13:20 1260.0000000000002357 DFFSR_24:CLK *13:28 5.0358 *13:28 *13:29 58.33333333333334359 *13:29 *13:30 5.0360 *13:30 *13:31 1306.6666666666667361 *13:31 *13:32 5.0362 DFFSR_16:CLK *13:33 5.0363 *13:33 *13:34 1050.0000000000002364 *13:34 *13:35 46.66666666666668365 *13:35 *13:29 350.00000000000006*END*D_NET *14 0.00042882051999999993*CONN*I DFFSR_15:CLK I*I DFFSR_20:CLK I*I DFFSR_14:CLK I*I DFFSR_18:CLK I*I DFFSR_23:CLK I*I DFFSR_8:CLK I*I BUFX2_4:Y O*CAP325 *14:1 2.5157e-05326 *14:2 2.5157e-05327 *14:3 4.703999999999999e-08328 *14:4 2.5463e-05329 *14:5 8.159999999999999e-08330 BUFX2_4:Y 5.0314e-05331 *14:6 2.5157e-05332 *14:7 2.5157e-05333 *14:8 1.8815999999999999e-07334 *14:9 2.52182e-05335 *14:10 2.5157e-05336 *14:11 4.0799999999999995e-08337 *14:12 2.5157e-05338 *14:13 2.688e-08339 *14:14 2.5157e-05340 *14:15 2.5259e-05341 *14:16 2.5157e-05342 *14:17 2.5157e-05343 *14:18 2.5157e-05344 *14:19 2.5157e-05345 *14:20 1.1423999999999998e-07346 *14:21 2.5157e-05347 *14:22 1.836e-07*RES366 DFFSR_15:CLK *14:1 5.0367 *14:1 *14:2 5.0368 *14:2 *14:3 326.6666666666667369 *14:3 *14:4 5.0370 *14:4 *14:5 233.33333333333337371 *14:5 BUFX2_4:Y 5.0372 DFFSR_8:CLK *14:6 5.0373 *14:6 *14:7 5.0374 *14:7 *14:8 373.3333333333334375 *14:8 *14:9 5.0376 *14:9 *14:4 875.0000000000001377 DFFSR_18:CLK *14:10 5.0378 *14:10 *14:11 116.66666666666669379 *14:11 *14:12 5.0380 *14:12 *14:13 186.6666666666667381 *14:13 *14:14 5.0382 *14:14 *14:9 175.00000000000003383 DFFSR_23:CLK *14:15 5.0384 *14:15 *14:16 5.0385 *14:16 *14:8 933.3333333333335386 DFFSR_20:CLK *14:17 5.0387 *14:17 *14:15 291.66666666666674388 DFFSR_14:CLK *14:18 5.0389 *14:18 *14:19 5.0390 *14:19 *14:20 793.3333333333335391 *14:20 *14:21 5.0392 *14:21 *14:22 525.0000000000001393 *14:22 BUFX2_4:Y 5.0*END*D_NET *15 0.0004549543199999999*CONN*I DFFSR_17:CLK I*I DFFSR