*SPEF "IEEE 1481-1998"
*DESIGN "cpu"
*DATE "Sun Dec 15 18:57:15 2019"
*VENDOR "ISPD 2013 Contest"
*PROGRAM "Benchmark Parasitic Generator"
*VERSION "0.0"
*DESIGN_FLOW "PIN_CAP NONE"
*DIVIDER /
*DELIMITER :
*BUS_DELIMITER []
*T_UNIT 1.00000 NS
*C_UNIT 1.00000 PF
*R_UNIT 1.00000 OHM
*L_UNIT 1.00000 HENRY


*NAME_MAP
*0 RDY
*1 RDY_bF_buf8
*2 RDY_bF_buf7
*3 RDY_bF_buf6
*4 RDY_bF_buf5
*5 RDY_bF_buf4
*6 RDY_bF_buf3
*7 RDY_bF_buf2
*8 RDY_bF_buf1
*9 RDY_bF_buf0
*10 _799_
*11 _799__bF_buf4
*12 _799__bF_buf3
*13 _799__bF_buf2
*14 _799__bF_buf1
*15 _799__bF_buf0
*16 clk
*17 clk_bF_buf11
*18 clk_bF_buf10
*19 clk_bF_buf9
*20 clk_bF_buf8
*21 clk_bF_buf7
*22 clk_bF_buf6
*23 clk_bF_buf5
*24 clk_bF_buf4
*25 clk_bF_buf3
*26 clk_bF_buf2
*27 clk_bF_buf1
*28 clk_bF_buf0
*29 _1101_
*30 _1101__bF_buf3
*31 _1101__bF_buf2
*32 _1101__bF_buf1
*33 _1101__bF_buf0
*34 _849_
*35 _849__bF_buf4
*36 _849__bF_buf3
*37 _849__bF_buf2
*38 _849__bF_buf1
*39 _849__bF_buf0
*40 _825_
*41 _825__bF_buf4
*42 _825__bF_buf3
*43 _825__bF_buf2
*44 _825__bF_buf1
*45 _825__bF_buf0
*46 _155_
*47 _155__bF_buf3
*48 _155__bF_buf2
*49 _155__bF_buf1
*50 _155__bF_buf0
*51 _822_
*52 _822__bF_buf4
*53 _822__bF_buf3
*54 _822__bF_buf2
*55 _822__bF_buf1
*56 _822__bF_buf0
*57 _152_
*58 _152__bF_buf3
*59 _152__bF_buf2
*60 _152__bF_buf1
*61 _152__bF_buf0
*62 _795_
*63 _795__bF_buf4
*64 _795__bF_buf3
*65 _795__bF_buf2
*66 _795__bF_buf1
*67 _795__bF_buf0
*68 _651_
*69 _651__bF_buf4
*70 _651__bF_buf3
*71 _651__bF_buf2
*72 _651__bF_buf1
*73 _651__bF_buf0
*74 _1070_
*75 _1070__bF_buf4
*76 _1070__bF_buf3
*77 _1070__bF_buf2
*78 _1070__bF_buf1
*79 _1070__bF_buf0
*80 _830_
*81 _830__bF_buf3
*82 _830__bF_buf2
*83 _830__bF_buf1
*84 _830__bF_buf0
*85 _1631_
*86 _1631__bF_buf3
*87 _1631__bF_buf2
*88 _1631__bF_buf1
*89 _1631__bF_buf0
*90 _1017_
*91 _1017__bF_buf7
*92 _1017__bF_buf6
*93 _1017__bF_buf5
*94 _1017__bF_buf4
*95 _1017__bF_buf3
*96 _1017__bF_buf2
*97 _1017__bF_buf1
*98 _1017__bF_buf0
*99 _859_
*100 _859__bF_buf3
*101 _859__bF_buf2
*102 _859__bF_buf1
*103 _859__bF_buf0
*104 _148_
*105 _148__bF_buf3
*106 _148__bF_buf2
*107 _148__bF_buf1
*108 _148__bF_buf0
*109 _815_
*110 _815__bF_buf3
*111 _815__bF_buf2
*112 _815__bF_buf1
*113 _815__bF_buf0
*114 _812_
*115 _812__bF_buf3
*116 _812__bF_buf2
*117 _812__bF_buf1
*118 _812__bF_buf0
*119 _809_
*120 _809__bF_buf4
*121 _809__bF_buf3
*122 _809__bF_buf2
*123 _809__bF_buf1
*124 _809__bF_buf0
*125 PC_13_
*126 _787_
*127 state_0_
*128 state_1_
*129 _788_
*130 _789_
*131 state_2_
*132 _790_
*133 state_3_
*134 _791_
*135 _792_
*136 state_4_
*137 _793_
*138 state_5_
*139 _794_
*140 _796_
*141 _797_
*142 _798_
*143 _800_
*144 _801_
*145 _802_
*146 _803_
*147 _804_
*148 _805_
*149 _806_
*150 _807_
*151 _808_
*152 _810_
*153 _811_
*154 _813_
*155 _814_
*156 _816_
*157 _817_
*158 _818_
*159 _819_
*160 _820_
*161 _821_
*162 IRQ
*163 _823_
*164 NMI_edge
*165 _824_
*166 I
*167 _826_
*168 _827_
*169 _828_
*170 _829_
*171 _831_
*172 ABH_5_
*173 _832_
*174 _833_
*175 _834_
*176 _835_
*177 _836_
*178 _837_
*179 _838_
*180 _839_
*181 _840_
*182 _841_
*183 _842_
*184 _843_
*185 DIHOLD_5_
*186 _844_
*187 DI_5_
*188 _845_
*189 DIMUX_5_
*190 ADD_5_
*191 _846_
*192 _847_
*193 _848_
*194 _850_
*195 _851_
*196 _852_
*197 _853_
*198 _854_
*199 PC_5_
*200 _855_
*201 _856_
*202 _857_
*203 _858_
*204 _860_
*205 _861_
*206 ABL_5_
*207 _862_
*208 _863_
*209 _864_
*210 _865_
*211 _866_
*212 _867_
*213 PC_4_
*214 _868_
*215 ADD_4_
*216 _869_
*217 _870_
*218 _871_
*219 _872_
*220 _873_
*221 ABL_4_
*222 _874_
*223 _875_
*224 _876_
*225 _877_
*226 _878_
*227 _879_
*228 PC_7_
*229 _880_
*230 ADD_7_
*231 _881_
*232 _882_
*233 _883_
*234 _884_
*235 ABL_7_
*236 _885_
*237 _886_
*238 _887_
*239 _888_
*240 _889_
*241 PC_6_
*242 _890_
*243 ADD_6_
*244 _891_
*245 _892_
*246 _893_
*247 _894_
*248 ABL_6_
*249 _895_
*250 _896_
*251 _897_
*252 _898_
*253 _899_
*254 _900_
*255 _901_
*256 PC_0_
*257 _902_
*258 ADD_0_
*259 _903_
*260 _904_
*261 _905_
*262 _906_
*263 ABL_0_
*264 _907_
*265 _908_
*266 _909_
*267 _910_
*268 _911_
*269 CO
*270 backwards
*271 _912_
*272 _913_
*273 _914_
*274 _915_
*275 _916_
*276 _917_
*277 _918_
*278 _919_
*279 _920_
*280 _921_
*281 _922_
*282 _923_
*283 _924_
*284 _925_
*285 _926_
*286 _927_
*287 _928_
*288 ADD_1_
*289 _929_
*290 PC_1_
*291 _930_
*292 _931_
*293 res
*294 _932_
*295 _933_
*296 _934_
*297 _935_
*298 ABL_1_
*299 _936_
*300 _937_
*301 _938_
*302 _939_
*303 _940_
*304 PC_3_
*305 _941_
*306 ADD_3_
*307 _942_
*308 _943_
*309 _944_
*310 _945_
*311 ABL_3_
*312 _946_
*313 _947_
*314 _948_
*315 _949_
*316 _950_
*317 PC_2_
*318 _951_
*319 _952_
*320 _953_
*321 ADD_2_
*322 _954_
*323 _955_
*324 _956_
*325 _957_
*326 ABL_2_
*327 _958_
*328 _959_
*329 _960_
*330 _961_
*331 _962_
*332 _963_
*333 _964_
*334 PC_11_
*335 _965_
*336 DIHOLD_3_
*337 _966_
*338 DI_3_
*339 _967_
*340 DIMUX_3_
*341 _968_
*342 ABH_3_
*343 _969_
*344 _970_
*345 _971_
*346 _972_
*347 _973_
*348 _974_
*349 _975_
*350 _976_
*351 PC_10_
*352 _977_
*353 DI_2_
*354 DIHOLD_2_
*355 _978_
*356 DIMUX_2_
*357 _979_
*358 ABH_2_
*359 _980_
*360 _981_
*361 _982_
*362 _983_
*363 _984_
*364 _985_
*365 _986_
*366 _987_
*367 _988_
*368 PC_9_
*369 _989_
*370 DIHOLD_1_
*371 _990_
*372 DI_1_
*373 _991_
*374 DIMUX_1_
*375 _992_
*376 ABH_1_
*377 _993_
*378 _994_
*379 _995_
*380 _996_
*381 _997_
*382 _998_
*383 _999_
*384 _1000_
*385 PC_8_
*386 _1001_
*387 DIHOLD_0_
*388 _1002_
*389 DI_0_
*390 _1003_
*391 DIMUX_0_
*392 _1004_
*393 ABH_0_
*394 _1005_
*395 _1006_
*396 _1007_
*397 _1008_
*398 _1009_
*399 _1010_
*400 _1011_
*401 _1012_
*402 _1013_
*403 _1014_
*404 _1015_
*405 PC_12_
*406 _1016_
*407 DIHOLD_4_
*408 _1018_
*409 DI_4_
*410 _1019_
*411 DIMUX_4_
*412 ABH_4_
*413 _1020_
*414 _1021_
*415 _1022_
*416 _1023_
*417 _1024_
*418 _1025_
*419 _1026_
*420 _1027_
*421 _1028_
*422 _1029_
*423 _1030_
*424 _1031_
*425 _1032_
*426 _1033_
*427 _1034_
*428 _1035_
*429 _1036_
*430 _1037_
*431 _1038_
*432 _1039_
*433 _1040_
*434 _1041_
*435 _1042_
*436 _1043_
*437 _1044_
*438 _1045_
*439 _9__13_
*440 PC_14_
*441 _1046_
*442 _1047_
*443 _1048_
*444 ABH_6_
*445 _1049_
*446 _1050_
*447 _1051_
*448 DI_6_
*449 DIHOLD_6_
*450 _1052_
*451 DIMUX_6_
*452 _1053_
*453 _1054_
*454 _1055_
*455 _1056_
*456 _1057_
*457 _1058_
*458 _9__14_
*459 PC_15_
*460 _1059_
*461 _1060_
*462 ABH_7_
*463 _1061_
*464 _1062_
*465 _1063_
*466 DI_7_
*467 DIHOLD_7_
*468 _1064_
*469 DIMUX_7_
*470 _1065_
*471 _1066_
*472 _1067_
*473 _1068_
*474 _1069_
*475 _9__15_
*476 _1071_
*477 _1072_
*478 IRHOLD_valid
*479 _1073_
*480 IRHOLD_3_
*481 _1074_
*482 _1075_
*483 _1076_
*484 _1077_
*485 IRHOLD_2_
*486 _1078_
*487 _1079_
*488 _1080_
*489 _1081_
*490 IRHOLD_1_
*491 _1082_
*492 _1083_
*493 IRHOLD_0_
*494 _1084_
*495 _1085_
*496 _1086_
*497 _1087_
*498 IRHOLD_7_
*499 _1088_
*500 _1089_
*501 _1090_
*502 IRHOLD_4_
*503 _1091_
*504 _1092_
*505 IRHOLD_5_
*506 _1093_
*507 _1094_
*508 _1095_
*509 _1096_
*510 _1097_
*511 _1098_
*512 _1099_
*513 _1100_
*514 _1102_
*515 _1103_
*516 _1104_
*517 _1105_
*518 _1106_
*519 _1107_
*520 _1108_
*521 _1109_
*522 _1110_
*523 _1111_
*524 _1112_
*525 _1113_
*526 _1114_
*527 _1115_
*528 _1116_
*529 _1117_
*530 _1118_
*531 _1119_
*532 _1120_
*533 _1121_
*534 _1122_
*535 _1123_
*536 _1124_
*537 _1125_
*538 _1126_
*539 _1127_
*540 _1128_
*541 _1129_
*542 _1130_
*543 _1131_
*544 _1132_
*545 _1133_
*546 _1134_
*547 _1135_
*548 _1136_
*549 _1137_
*550 _1138_
*551 _1139_
*552 _1140_
*553 _1141_
*554 _1142_
*555 _1143_
*556 _1144_
*557 _1145_
*558 _1146_
*559 _1147_
*560 _1148_
*561 _1149_
*562 _1150_
*563 _1151_
*564 _1152_
*565 _1153_
*566 _1154_
*567 _1155_
*568 _1156_
*569 _1157_
*570 _1158_
*571 _1159_
*572 _1160_
*573 _1161_
*574 _1162_
*575 _1163_
*576 _1164_
*577 _1165_
*578 _1166_
*579 _1167_
*580 _1168_
*581 _1169_
*582 _1170_
*583 _1171_
*584 _1172_
*585 _1173_
*586 _1174_
*587 _1176_
*588 _1177_
*589 _1178_
*590 _1179_
*591 _1180_
*592 _1181_
*593 _1182_
*594 _1183_
*595 _1184_
*596 _1185_
*597 _1186_
*598 _1187_
*599 _1188_
*600 _1189_
*601 _1190_
*602 _1191_
*603 _1192_
*604 _1193_
*605 _1194_
*606 _1195_
*607 _1196_
*608 _1197_
*609 _1198_
*610 _1199_
*611 _1200_
*612 _1201_
*613 _1202_
*614 _1203_
*615 _1204_
*616 _1205_
*617 _1206_
*618 store
*619 _1207_
*620 _1208_
*621 _1209_
*622 _1210_
*623 _1211_
*624 write_back
*625 _1212_
*626 _1213_
*627 _1214_
*628 _1215_
*629 _1216_
*630 _1217_
*631 _1218_
*632 _1219_
*633 _1220_
*634 _1221_
*635 _1222_
*636 _1223_
*637 IRHOLD_6_
*638 _1224_
*639 _1225_
*640 _1226_
*641 _1227_
*642 _1228_
*643 _1229_
*644 _1230_
*645 _1231_
*646 _1232_
*647 _1233_
*648 _1234_
*649 _1235_
*650 _1236_
*651 _1237_
*652 _1238_
*653 _1239_
*654 _1240_
*655 _1241_
*656 _1242_
*657 _1243_
*658 _1244_
*659 _1245_
*660 _1246_
*661 _1247_
*662 _1248_
*663 _1249_
*664 _1250_
*665 _1251_
*666 _1252_
*667 _1253_
*668 _1254_
*669 _1255_
*670 _1256_
*671 _1257_
*672 _1438__0_
*673 _1258_
*674 _1259_
*675 _1260_
*676 _1261_
*677 _1262_
*678 _1263_
*679 _1264_
*680 _1265_
*681 _1266_
*682 _1267_
*683 _1268_
*684 _1269_
*685 _1270_
*686 _1271_
*687 _1272_
*688 _1273_
*689 _1274_
*690 _1275_
*691 _1276_
*692 _1277_
*693 _1278_
*694 _1279_
*695 _1280_
*696 _1281_
*697 _1282_
*698 _1283_
*699 _1284_
*700 _1285_
*701 _1286_
*702 _1287_
*703 _1288_
*704 _1289_
*705 _1290_
*706 _1291_
*707 _1292_
*708 _1293_
*709 _1294_
*710 _1295_
*711 _1296_
*712 _1297_
*713 _1298_
*714 _1299_
*715 _1300_
*716 _1301_
*717 _1302_
*718 Z
*719 _1303_
*720 cond_code_1_
*721 _1304_
*722 C
*723 _1305_
*724 V
*725 _1306_
*726 _1307_
*727 N
*728 _1308_
*729 cond_code_2_
*730 _1309_
*731 cond_code_0_
*732 _1310_
*733 _1311_
*734 _1312_
*735 _1313_
*736 _1314_
*737 _1315_
*738 _1316_
*739 _1317_
*740 _1318_
*741 _1319_
*742 _1320_
*743 _1321_
*744 _1322_
*745 _1323_
*746 _1324_
*747 _1325_
*748 _1326_
*749 _1327_
*750 _1328_
*751 _1329_
*752 _1330_
*753 _1331_
*754 _1332_
*755 _1333_
*756 _1334_
*757 _1438__1_
*758 _1335_
*759 _1336_
*760 _1337_
*761 _1338_
*762 _1339_
*763 _1340_
*764 _1341_
*765 _1342_
*766 _1343_
*767 _1344_
*768 _1345_
*769 _1346_
*770 _1347_
*771 _1348_
*772 _1349_
*773 _1350_
*774 _1351_
*775 _1352_
*776 _1353_
*777 _1354_
*778 _1355_
*779 _1356_
*780 _1357_
*781 _1358_
*782 _1359_
*783 _1360_
*784 _1361_
*785 _1362_
*786 _1363_
*787 _1364_
*788 _1365_
*789 _1366_
*790 _1367_
*791 _1368_
*792 _1369_
*793 _1370_
*794 _1371_
*795 _1372_
*796 _1373_
*797 _1374_
*798 _1375_
*799 _1376_
*800 _1377_
*801 _1378_
*802 _1379_
*803 _1380_
*804 _1381_
*805 _1382_
*806 _1383_
*807 _1384_
*808 _1385_
*809 _1386_
*810 _1387_
*811 _1388_
*812 _1389_
*813 _1390_
*814 _1391_
*815 _1392_
*816 _1393_
*817 _1394_
*818 _1395_
*819 _1396_
*820 _1397_
*821 _1398_
*822 _1399_
*823 _1400_
*824 _1401_
*825 _1402_
*826 _1403_
*827 _1438__2_
*828 _1404_
*829 _1405_
*830 _1406_
*831 _1407_
*832 _1408_
*833 _1409_
*834 _1410_
*835 _1411_
*836 _1412_
*837 _1413_
*838 _1414_
*839 _1415_
*840 _1416_
*841 _1417_
*842 _1418_
*843 _1419_
*844 _1420_
*845 _1421_
*846 _1422_
*847 _1423_
*848 _1424_
*849 _1425_
*850 _1426_
*851 _1427_
*852 _1428_
*853 _1429_
*854 _1430_
*855 _1431_
*856 _1432_
*857 _1433_
*858 _1434_
*859 _1435_
*860 _1436_
*861 _1437_
*862 _41_
*863 _42_
*864 _43_
*865 _44_
*866 _45_
*867 _46_
*868 _47_
*869 _48_
*870 _49_
*871 _50_
*872 _51_
*873 _1438__3_
*874 _52_
*875 _53_
*876 _54_
*877 _55_
*878 _56_
*879 _57_
*880 _58_
*881 _59_
*882 _60_
*883 _61_
*884 _1438__4_
*885 _62_
*886 _63_
*887 _64_
*888 _65_
*889 _66_
*890 _67_
*891 _68_
*892 _69_
*893 _70_
*894 _71_
*895 _72_
*896 _73_
*897 _74_
*898 _75_
*899 _76_
*900 _77_
*901 _78_
*902 _1438__5_
*903 _79_
*904 _80_
*905 _81_
*906 load_only
*907 _82_
*908 shift
*909 _83_
*910 rotate
*911 _84_
*912 _85_
*913 compare
*914 _86_
*915 _87_
*916 _88_
*917 inc
*918 _89_
*919 _90_
*920 _91_
*921 _92_
*922 _93_
*923 _94_
*924 _95_
*925 _96_
*926 _97_
*927 _98_
*928 _99_
*929 _100_
*930 _101_
*931 _102_
*932 _103_
*933 CI
*934 _104_
*935 _105_
*936 _106_
*937 _107_
*938 _108_
*939 _109_
*940 _110_
*941 _111_
*942 _112_
*943 _113_
*944 _114_
*945 _115_
*946 _116_
*947 _117_
*948 BI_0_
*949 _118_
*950 BI_1_
*951 BI_2_
*952 BI_3_
*953 BI_4_
*954 _119_
*955 BI_5_
*956 BI_6_
*957 BI_7_
*958 _120_
*959 _121_
*960 _122_
*961 _123_
*962 _124_
*963 _125_
*964 _126_
*965 _127_
*966 src_reg_1_
*967 _128_
*968 _129_
*969 _130_
*970 _131_
*971 _132_
*972 _133_
*973 _134_
*974 _135_
*975 _136_
*976 _137_
*977 _138_
*978 _139_
*979 _140_
*980 dst_reg_1_
*981 _141_
*982 _142_
*983 _143_
*984 _144_
*985 _145_
*986 _146_
*987 AXYS_1__0_
*988 _147_
*989 src_reg_0_
*990 _149_
*991 index_y
*992 _150_
*993 dst_reg_0_
*994 _151_
*995 _153_
*996 AXYS_0__0_
*997 _154_
*998 _156_
*999 _157_
*1000 AXYS_3__0_
*1001 _158_
*1002 _159_
*1003 AXYS_2__0_
*1004 _160_
*1005 _161_
*1006 _162_
*1007 _163_
*1008 _164_
*1009 _165_
*1010 _166_
*1011 _167_
*1012 _168_
*1013 _169_
*1014 _170_
*1015 _171_
*1016 _172_
*1017 AI_0_
*1018 _173_
*1019 _174_
*1020 _175_
*1021 AXYS_1__1_
*1022 _176_
*1023 _177_
*1024 AXYS_0__1_
*1025 _178_
*1026 _179_
*1027 _180_
*1028 AXYS_3__1_
*1029 _181_
*1030 _182_
*1031 AXYS_2__1_
*1032 _183_
*1033 _184_
*1034 _185_
*1035 _186_
*1036 AI_1_
*1037 _187_
*1038 _188_
*1039 AXYS_1__2_
*1040 _189_
*1041 _190_
*1042 AXYS_0__2_
*1043 _191_
*1044 _192_
*1045 _193_
*1046 AXYS_3__2_
*1047 _194_
*1048 _195_
*1049 AXYS_2__2_
*1050 _196_
*1051 _197_
*1052 _198_
*1053 _199_
*1054 AI_2_
*1055 _200_
*1056 _201_
*1057 AXYS_1__3_
*1058 _202_
*1059 _203_
*1060 AXYS_0__3_
*1061 _204_
*1062 _205_
*1063 _206_
*1064 AXYS_3__3_
*1065 _207_
*1066 _208_
*1067 AXYS_2__3_
*1068 _209_
*1069 _210_
*1070 _211_
*1071 _212_
*1072 AI_3_
*1073 _213_
*1074 _214_
*1075 AXYS_1__4_
*1076 _215_
*1077 _216_
*1078 AXYS_0__4_
*1079 _217_
*1080 _218_
*1081 _219_
*1082 AXYS_3__4_
*1083 _220_
*1084 _221_
*1085 AXYS_2__4_
*1086 _222_
*1087 _223_
*1088 _224_
*1089 _225_
*1090 AI_4_
*1091 _226_
*1092 _227_
*1093 _228_
*1094 AXYS_1__5_
*1095 _229_
*1096 _230_
*1097 AXYS_0__5_
*1098 _231_
*1099 _232_
*1100 _233_
*1101 AXYS_3__5_
*1102 _234_
*1103 _235_
*1104 AXYS_2__5_
*1105 _236_
*1106 _237_
*1107 _238_
*1108 _239_
*1109 AI_5_
*1110 _240_
*1111 _241_
*1112 AXYS_1__6_
*1113 _242_
*1114 _243_
*1115 AXYS_0__6_
*1116 _244_
*1117 _245_
*1118 _246_
*1119 AXYS_3__6_
*1120 _247_
*1121 _248_
*1122 AXYS_2__6_
*1123 _249_
*1124 _250_
*1125 _251_
*1126 _252_
*1127 AI_6_
*1128 _253_
*1129 _254_
*1130 AXYS_1__7_
*1131 _255_
*1132 _256_
*1133 AXYS_0__7_
*1134 _257_
*1135 _258_
*1136 _259_
*1137 AXYS_3__7_
*1138 _260_
*1139 _261_
*1140 AXYS_2__7_
*1141 _262_
*1142 _263_
*1143 _264_
*1144 _265_
*1145 AI_7_
*1146 op_0_
*1147 _266_
*1148 _267_
*1149 _268_
*1150 _269_
*1151 _270_
*1152 _271_
*1153 _272_
*1154 _273_
*1155 alu_op_0_
*1156 op_1_
*1157 _274_
*1158 alu_op_1_
*1159 _275_
*1160 _276_
*1161 op_2_
*1162 _277_
*1163 alu_op_2_
*1164 op_3_
*1165 _278_
*1166 alu_op_3_
*1167 _279_
*1168 _280_
*1169 _281_
*1170 _282_
*1171 _1441_
*1172 _283_
*1173 php
*1174 _284_
*1175 _285_
*1176 _286_
*1177 _287_
*1178 _288_
*1179 _289_
*1180 _1440__0_
*1181 _290_
*1182 _291_
*1183 _292_
*1184 _293_
*1185 _294_
*1186 _295_
*1187 _296_
*1188 _1440__1_
*1189 _297_
*1190 _298_
*1191 _299_
*1192 _300_
*1193 _1440__2_
*1194 _301_
*1195 D
*1196 _302_
*1197 _303_
*1198 _304_
*1199 _305_
*1200 _1440__3_
*1201 _306_
*1202 _307_
*1203 _308_
*1204 _309_
*1205 _1440__4_
*1206 _310_
*1207 _311_
*1208 _312_
*1209 _313_
*1210 _1440__5_
*1211 _314_
*1212 _315_
*1213 _316_
*1214 _317_
*1215 _1440__6_
*1216 _318_
*1217 _319_
*1218 _320_
*1219 _321_
*1220 _1440__7_
*1221 adc_sbc
*1222 _14_
*1223 adc_bcd
*1224 _322_
*1225 ALU_BCD
*1226 reset
*1227 _1175_
*1228 _323_
*1229 _31_
*1230 plp
*1231 _324_
*1232 _325_
*1233 _326_
*1234 _327_
*1235 _328_
*1236 _329_
*1237 _330_
*1238 sei
*1239 _331_
*1240 cli
*1241 _332_
*1242 _333_
*1243 _6_
*1244 shift_right
*1245 alu_shift_right
*1246 _334_
*1247 _335_
*1248 _336_
*1249 _337_
*1250 load_reg
*1251 _338_
*1252 _339_
*1253 _340_
*1254 _341_
*1255 _342_
*1256 _343_
*1257 _344_
*1258 _345_
*1259 _1442__0_
*1260 HC
*1261 _346_
*1262 adj_bcd
*1263 _347_
*1264 _348_
*1265 _349_
*1266 _350_
*1267 _351_
*1268 _352_
*1269 _353_
*1270 _354_
*1271 _1442__1_
*1272 _355_
*1273 _356_
*1274 _357_
*1275 _358_
*1276 _359_
*1277 _1442__2_
*1278 _360_
*1279 _361_
*1280 _362_
*1281 _363_
*1282 _364_
*1283 _365_
*1284 _366_
*1285 _1442__3_
*1286 _367_
*1287 _368_
*1288 _369_
*1289 _1442__4_
*1290 _370_
*1291 _371_
*1292 _372_
*1293 _373_
*1294 _374_
*1295 _375_
*1296 _376_
*1297 _377_
*1298 _378_
*1299 _1442__5_
*1300 _379_
*1301 _380_
*1302 _381_
*1303 _382_
*1304 _383_
*1305 _1442__6_
*1306 _384_
*1307 _385_
*1308 _386_
*1309 _387_
*1310 _388_
*1311 _389_
*1312 _390_
*1313 _1442__7_
*1314 NMI_1
*1315 _391_
*1316 NMI
*1317 _392_
*1318 _7_
*1319 _393_
*1320 _22__0_
*1321 _394_
*1322 _22__1_
*1323 _395_
*1324 _22__2_
*1325 _396_
*1326 _30_
*1327 _397_
*1328 _398_
*1329 _399_
*1330 _29_
*1331 clc
*1332 _400_
*1333 _401_
*1334 _402_
*1335 _17_
*1336 sec
*1337 _403_
*1338 _404_
*1339 _405_
*1340 _33_
*1341 cld
*1342 _406_
*1343 _407_
*1344 _408_
*1345 _409_
*1346 _18_
*1347 sed
*1348 _410_
*1349 _411_
*1350 _34_
*1351 _412_
*1352 _413_
*1353 _414_
*1354 _19_
*1355 _35_
*1356 _415_
*1357 _416_
*1358 clv
*1359 _417_
*1360 _20_
*1361 _418_
*1362 _419_
*1363 _420_
*1364 _421_
*1365 bit_ins
*1366 _422_
*1367 _16_
*1368 _423_
*1369 _424_
*1370 _425_
*1371 _426_
*1372 _427_
*1373 _428_
*1374 _429_
*1375 _430_
*1376 _431_
*1377 _432_
*1378 _433_
*1379 _434_
*1380 _435_
*1381 _436_
*1382 _437_
*1383 _438_
*1384 _439_
*1385 _440_
*1386 _441_
*1387 _442_
*1388 _443_
*1389 _444_
*1390 _445_
*1391 _446_
*1392 _447_
*1393 _448_
*1394 _449_
*1395 _28__0_
*1396 _450_
*1397 _451_
*1398 _452_
*1399 _28__1_
*1400 _453_
*1401 _28__2_
*1402 _28__3_
*1403 _454_
*1404 _455_
*1405 _456_
*1406 _457_
*1407 _32_
*1408 _458_
*1409 _37_
*1410 _459_
*1411 _21_
*1412 _460_
*1413 _36_
*1414 _461_
*1415 _462_
*1416 _463_
*1417 _464_
*1418 _465_
*1419 _12_
*1420 _466_
*1421 _13_
*1422 _467_
*1423 _468_
*1424 _469_
*1425 _24_
*1426 _470_
*1427 _471_
*1428 _472_
*1429 _1443__0_
*1430 _473_
*1431 _1443__1_
*1432 _474_
*1433 _1443__2_
*1434 _475_
*1435 _1443__3_
*1436 _476_
*1437 _1443__4_
*1438 _477_
*1439 _1443__5_
*1440 _478_
*1441 _1443__6_
*1442 _479_
*1443 _1443__7_
*1444 _480_
*1445 _481_
*1446 _26_
*1447 _482_
*1448 _483_
*1449 _40_
*1450 _484_
*1451 _485_
*1452 _39_
*1453 _486_
*1454 _487_
*1455 _488_
*1456 _25_
*1457 _489_
*1458 _490_
*1459 _491_
*1460 _492_
*1461 _493_
*1462 _494_
*1463 _495_
*1464 _496_
*1465 _497_
*1466 _498_
*1467 _499_
*1468 _38__0_
*1469 _500_
*1470 _501_
*1471 _502_
*1472 _503_
*1473 _504_
*1474 _505_
*1475 _38__1_
*1476 _506_
*1477 _507_
*1478 _508_
*1479 _509_
*1480 _510_
*1481 _23__0_
*1482 _511_
*1483 _512_
*1484 _513_
*1485 _23__1_
*1486 _514_
*1487 _515_
*1488 _516_
*1489 _517_
*1490 _518_
*1491 _519_
*1492 _520_
*1493 _521_
*1494 _522_
*1495 _523_
*1496 _27_
*1497 _524_
*1498 _525_
*1499 _526_
*1500 _4__0_
*1501 _527_
*1502 _4__1_
*1503 _528_
*1504 _4__2_
*1505 _529_
*1506 _4__3_
*1507 _530_
*1508 _4__4_
*1509 _531_
*1510 _4__5_
*1511 _532_
*1512 _4__6_
*1513 _533_
*1514 _4__7_
*1515 _534_
*1516 _5_
*1517 _535_
*1518 AV
*1519 _536_
*1520 _537_
*1521 _538_
*1522 _539_
*1523 _540_
*1524 _541_
*1525 _542_
*1526 _543_
*1527 _544_
*1528 _10_
*1529 _545_
*1530 _546_
*1531 _547_
*1532 _548_
*1533 _549_
*1534 _3_
*1535 _550_
*1536 _551_
*1537 _1444__0_
*1538 _552_
*1539 _1444__1_
*1540 _553_
*1541 _1444__2_
*1542 _554_
*1543 _1444__3_
*1544 _555_
*1545 _1444__4_
*1546 _556_
*1547 _1444__5_
*1548 _557_
*1549 _1444__6_
*1550 _558_
*1551 _1444__7_
*1552 AN
*1553 _559_
*1554 _560_
*1555 _561_
*1556 _562_
*1557 _563_
*1558 _564_
*1559 _565_
*1560 _566_
*1561 _567_
*1562 _568_
*1563 _569_
*1564 _8_
*1565 AZ
*1566 _570_
*1567 _571_
*1568 _572_
*1569 _573_
*1570 _574_
*1571 _575_
*1572 _576_
*1573 _577_
*1574 _11_
*1575 _578_
*1576 _579_
*1577 _580_
*1578 _581_
*1579 _582_
*1580 _583_
*1581 _584_
*1582 _585_
*1583 _586_
*1584 _587_
*1585 _588_
*1586 _2_
*1587 _589_
*1588 _1445__0_
*1589 _1445__1_
*1590 _1445__2_
*1591 _1445__3_
*1592 _1445__4_
*1593 _1445__5_
*1594 _1445__6_
*1595 _1445__7_
*1596 _590_
*1597 _15_
*1598 _591_
*1599 _592_
*1600 _593_
*1601 _594_
*1602 _595_
*1603 _596_
*1604 _597_
*1605 _598_
*1606 _599_
*1607 _600_
*1608 _601_
*1609 _602_
*1610 _603_
*1611 _604_
*1612 _605_
*1613 _606_
*1614 _607_
*1615 _608_
*1616 _609_
*1617 _610_
*1618 _611_
*1619 _612_
*1620 _613_
*1621 _614_
*1622 _615_
*1623 _616_
*1624 _617_
*1625 _618_
*1626 _619_
*1627 _1439__0_
*1628 _620_
*1629 _621_
*1630 _622_
*1631 _623_
*1632 _624_
*1633 _625_
*1634 _626_
*1635 _627_
*1636 _628_
*1637 _629_
*1638 _630_
*1639 _631_
*1640 _632_
*1641 _633_
*1642 _634_
*1643 _635_
*1644 _636_
*1645 _637_
*1646 _638_
*1647 _639_
*1648 _640_
*1649 _641_
*1650 _642_
*1651 _643_
*1652 _644_
*1653 _645_
*1654 _646_
*1655 _647_
*1656 _648_
*1657 _649_
*1658 _650_
*1659 _652_
*1660 _1__0_
*1661 _653_
*1662 _654_
*1663 _655_
*1664 _656_
*1665 _657_
*1666 _658_
*1667 _1439__1_
*1668 _659_
*1669 _1__1_
*1670 _660_
*1671 _661_
*1672 _662_
*1673 _663_
*1674 _664_
*1675 _1439__2_
*1676 _665_
*1677 _1__2_
*1678 _666_
*1679 _667_
*1680 _668_
*1681 _669_
*1682 _670_
*1683 _1439__3_
*1684 _671_
*1685 _1__3_
*1686 _672_
*1687 _673_
*1688 _674_
*1689 _675_
*1690 _676_
*1691 _1439__4_
*1692 _677_
*1693 _1__4_
*1694 _678_
*1695 _679_
*1696 _680_
*1697 _681_
*1698 _682_
*1699 _1439__5_
*1700 _683_
*1701 _1__5_
*1702 _684_
*1703 _685_
*1704 _686_
*1705 _687_
*1706 _688_
*1707 _1439__6_
*1708 _689_
*1709 _1__6_
*1710 _690_
*1711 _691_
*1712 _692_
*1713 _693_
*1714 _694_
*1715 _1439__7_
*1716 _695_
*1717 _1__7_
*1718 _696_
*1719 _697_
*1720 _698_
*1721 _699_
*1722 _700_
*1723 _1439__8_
*1724 _701_
*1725 _0__0_
*1726 _702_
*1727 _703_
*1728 _704_
*1729 _705_
*1730 _706_
*1731 _1439__9_
*1732 _707_
*1733 _0__1_
*1734 _708_
*1735 _709_
*1736 _710_
*1737 _1439__10_
*1738 _711_
*1739 _0__2_
*1740 _712_
*1741 _713_
*1742 _714_
*1743 _1439__11_
*1744 _715_
*1745 _0__3_
*1746 _716_
*1747 _717_
*1748 _1439__12_
*1749 _718_
*1750 _0__4_
*1751 _719_
*1752 _720_
*1753 _721_
*1754 _1439__13_
*1755 _722_
*1756 _0__5_
*1757 _723_
*1758 _724_
*1759 _725_
*1760 _726_
*1761 _1439__14_
*1762 _727_
*1763 _0__6_
*1764 _728_
*1765 _729_
*1766 _1439__15_
*1767 _730_
*1768 _0__7_
*1769 _731_
*1770 _732_
*1771 _733_
*1772 _734_
*1773 _735_
*1774 _736_
*1775 _737_
*1776 _9__0_
*1777 _738_
*1778 _739_
*1779 _9__1_
*1780 _740_
*1781 _741_
*1782 _742_
*1783 _743_
*1784 _744_
*1785 _9__2_
*1786 _745_
*1787 _746_
*1788 _747_
*1789 _9__3_
*1790 _748_
*1791 _749_
*1792 _750_
*1793 _751_
*1794 _9__4_
*1795 _752_
*1796 _753_
*1797 _754_
*1798 _755_
*1799 _756_
*1800 _9__5_
*1801 _757_
*1802 _758_
*1803 _759_
*1804 _9__6_
*1805 _760_
*1806 _761_
*1807 _762_
*1808 _763_
*1809 _9__7_
*1810 _764_
*1811 _765_
*1812 _766_
*1813 _767_
*1814 _768_
*1815 _769_
*1816 _9__8_
*1817 _770_
*1818 _771_
*1819 _772_
*1820 _773_
*1821 _774_
*1822 _9__9_
*1823 _775_
*1824 _776_
*1825 _777_
*1826 _778_
*1827 _779_
*1828 _780_
*1829 _9__10_
*1830 _781_
*1831 _782_
*1832 _783_
*1833 _9__11_
*1834 _784_
*1835 _785_
*1836 _786_
*1837 _9__12_
*1838 AB_0_
*1839 AB_1_
*1840 AB_2_
*1841 AB_3_
*1842 AB_4_
*1843 AB_5_
*1844 AB_6_
*1845 AB_7_
*1846 AB_8_
*1847 AB_9_
*1848 AB_10_
*1849 AB_11_
*1850 AB_12_
*1851 AB_13_
*1852 AB_14_
*1853 AB_15_
*1854 DO_0_
*1855 DO_1_
*1856 DO_2_
*1857 DO_3_
*1858 DO_4_
*1859 DO_5_
*1860 DO_6_
*1861 DO_7_
*1862 WE
*1863 vdd
*1864 _1626_
*1865 _1627_
*1866 _1628_
*1867 _1629_
*1868 _1630_
*1869 _1632_
*1870 _1633_
*1871 _1634_
*1872 _1635_
*1873 _1636_
*1874 _1637_
*1875 _1638_
*1876 _1639_
*1877 _1640_
*1878 _1641_
*1879 _1642_
*1880 _1643_
*1881 _1644_
*1882 _1645_
*1883 _1646_
*1884 _1647_
*1885 _1648_
*1886 _1649_
*1887 _1650_
*1888 _1651_
*1889 _1652_
*1890 _1653_
*1891 _1654_
*1892 _1655_
*1893 _1656_
*1894 _1657_
*1895 _1658_
*1896 _1659_
*1897 _1660_
*1898 _1661_
*1899 _1662_
*1900 _1663_
*1901 _1664_
*1902 _1665_
*1903 _1666_
*1904 _1667_
*1905 _1668_
*1906 _1669_
*1907 _1670_
*1908 _1671_
*1909 _1452_
*1910 _1453_
*1911 _1454_
*1912 _1455_
*1913 _1456_
*1914 _1457_
*1915 _1458_
*1916 _1459_
*1917 _1460_
*1918 _1461_
*1919 _1462_
*1920 _1463_
*1921 _1464_
*1922 _1465_
*1923 _1466_
*1924 _1467_
*1925 _1468_
*1926 _1469_
*1927 _1470_
*1928 _1471_
*1929 _1472_
*1930 _1473_
*1931 _1474_
*1932 _1475_
*1933 _1476_
*1934 _1477_
*1935 _1478_
*1936 _1479_
*1937 _1480_
*1938 _1481_
*1939 _1482_
*1940 _1483_
*1941 _1484_
*1942 _1485_
*1943 _1486_
*1944 _1487_
*1945 _1488_
*1946 _1489_
*1947 _1490_
*1948 _1491_
*1949 _1492_
*1950 _1493_
*1951 _1494_
*1952 _1495_
*1953 _1496_
*1954 _1497_
*1955 _1498_
*1956 _1499_
*1957 _1500_
*1958 _1501_
*1959 _1502_
*1960 _1503_
*1961 _1504_
*1962 _1505_
*1963 _1506_
*1964 _1507_
*1965 _1508_
*1966 _1509_
*1967 _1510_
*1968 _1511_
*1969 _1512_
*1970 _1513_
*1971 _1514_
*1972 _1515_
*1973 _1516_
*1974 _1517_
*1975 _1518_
*1976 _1519_
*1977 _1520_
*1978 _1521_
*1979 _1522_
*1980 _1523_
*1981 _1524_
*1982 _1525_
*1983 _1526_
*1984 _1527_
*1985 _1528_
*1986 _1529_
*1987 _1530_
*1988 _1531_
*1989 _1532_
*1990 _1533_
*1991 _1534_
*1992 _1535_
*1993 _1536_
*1994 _1537_
*1995 _1538_
*1996 _1539_
*1997 _1540_
*1998 _1541_
*1999 _1542_
*2000 _1543_
*2001 _1544_
*2002 _1545_
*2003 _1546_
*2004 _1547_
*2005 _1548_
*2006 _1549_
*2007 _1550_
*2008 _1551_
*2009 _1552_
*2010 _1553_
*2011 _1554_
*2012 _1555_
*2013 _1556_
*2014 _1557_
*2015 _1558_
*2016 _1559_
*2017 _1560_
*2018 _1561_
*2019 _1562_
*2020 _1563_
*2021 _1564_
*2022 _1565_
*2023 _1566_
*2024 _1567_
*2025 _1568_
*2026 _1569_
*2027 _1570_
*2028 _1571_
*2029 _1572_
*2030 _1573_
*2031 _1574_
*2032 _1575_
*2033 _1576_
*2034 _1577_
*2035 _1578_
*2036 _1579_
*2037 _1580_
*2038 _1581_
*2039 _1582_
*2040 _1583_
*2041 _1584_
*2042 _1585_
*2043 _1586_
*2044 _1587_
*2045 _1588_
*2046 _1589_
*2047 _1590_
*2048 _1591_
*2049 _1592_
*2050 _1593_
*2051 _1594_
*2052 _1595_
*2053 _1596_
*2054 _1597_
*2055 _1598_
*2056 _1599_
*2057 _1600_
*2058 _1601_
*2059 _1602_
*2060 _1603_
*2061 _1604_
*2062 _1448_
*2063 _1605_
*2064 _1606_
*2065 _1450_
*2066 _1607_
*2067 _1449_
*2068 _1608_
*2069 _1609_
*2070 _1610_
*2071 _1611_
*2072 _1451__0_
*2073 _1612_
*2074 _1451__1_
*2075 _1613_
*2076 _1451__2_
*2077 _1614_
*2078 _1451__3_
*2079 _1615_
*2080 _1616_
*2081 _1617_
*2082 _1451__4_
*2083 _1618_
*2084 _1451__5_
*2085 _1619_
*2086 _1451__6_
*2087 _1620_
*2088 _1451__7_
*2089 _1621_
*2090 ALU_BI7
*2091 _1622_
*2092 _1447_
*2093 ALU_AI7
*2094 _1623_
*2095 _1446_
*2096 _1624_
*2097 _1625_

*D_NET *0 0.0012652047580000013
*CONN
*P RDY O
*I BUFX4_9:A I
*I BUFX4_8:A I
*I BUFX4_7:A I
*I BUFX4_6:A I
*I BUFX4_5:A I
*I BUFX4_4:A I
*I BUFX4_3:A I
*I BUFX4_2:A I
*I BUFX4_1:A I
*CAP
0 *0:1 2.88e-08
1 *0:2 2.5157e-05
2 *0:3 2.0399999999999997e-08
3 *0:4 1.632e-08
4 *0:5 1.4279999999999998e-07
5 *0:6 2.5157e-05
6 *0:7 1.344e-08
7 *0:8 2.54222e-05
8 *0:9 2.0399999999999997e-08
9 *0:10 3.264e-08
10 *0:11 2.0399999999999997e-08
11 *0:12 2.5157e-05
12 *0:13 2.688e-08
13 *0:14 2.5157e-05
14 *0:15 6.119999999999999e-08
15 *0:16 2.5157e-05
16 BUFX4_1:A 2.88e-08
17 *0:17 2.5157e-05
18 *0:18 2.0399999999999997e-08
19 *0:19 2.5157e-05
20 *0:20 8.399999999999999e-09
21 *0:21 2.5157e-05
22 *0:22 9.599999999999999e-08
23 *0:23 2.5157e-05
24 *0:24 1.8143999999999996e-07
25 *0:25 2.5157e-05
26 *0:26 2.5157e-05
27 *0:27 1.632e-08
28 *0:28 2.0399999999999997e-08
29 *0:29 2.516372e-05
30 *0:30 5.376e-08
31 *0:31 8.399999999999999e-09
32 *0:32 8.063999999999999e-08
33 *0:33 2.5157e-05
34 *0:34 4.0799999999999995e-08
35 *0:35 1.632e-08
36 *0:36 1.02e-07
37 *0:37 2.5157e-05
38 *0:38 1.344e-08
39 *0:39 2.5157e-05
40 *0:40 8.159999999999999e-08
41 *0:41 1.632e-08
42 *0:42 6.119999999999999e-08
43 *0:43 2.5157e-05
44 *0:44 1.344e-08
45 *0:45 8.399999999999999e-09
46 *0:46 9.407999999999998e-08
47 *0:47 8.399999999999999e-09
48 *0:48 2.688e-08
49 *0:49 8.399999999999999e-09
50 *0:50 2.0159999999999997e-08
51 *0:51 2.5157e-05
52 *0:52 8.159999999999999e-08
53 *0:53 1.632e-08
54 *0:54 6.119999999999999e-08
55 *0:55 1.632e-08
56 *0:56 4.0799999999999995e-08
57 *0:57 1.632e-08
58 *0:58 5.303999999999999e-07
59 *0:59 2.5157e-05
60 *0:60 2.53814e-05
61 *0:61 1.632e-08
62 *0:62 2.5157e-05
63 *0:63 6.72e-09
64 *0:64 2.5157e-05
65 *0:65 3.4559999999999997e-07
66 *0:66 2.5157e-05
67 *0:67 1.8815999999999996e-07
68 *0:68 8.399999999999999e-09
69 *0:69 2.8895999999999996e-07
70 *0:70 8.399999999999999e-09
71 *0:71 3.1583999999999995e-07
72 *0:72 2.5157e-05
73 *0:73 8.639999999999999e-08
74 *0:74 2.5157e-05
75 *0:75 2.688e-08
76 *0:76 2.5157e-05
77 *0:77 1.02e-07
78 *0:78 1.632e-08
79 *0:79 4.2839999999999995e-07
80 *0:80 2.5157e-05
81 *0:81 1.344e-08
82 *0:82 2.5157e-05
83 *0:83 2.0399999999999997e-08
84 *0:84 1.632e-08
85 *0:85 3.8759999999999995e-07
86 *0:86 2.5157e-05
87 *0:87 5.0314e-05
88 *0:88 2.5170398e-05
89 *0:89 2.5157e-05
90 *0:90 2.0399999999999997e-08
91 *0:91 2.5157e-05
92 *0:92 8.399999999999999e-09
93 *0:93 2.54546e-05
94 *0:94 5.759999999999999e-07
95 *0:95 2.5157e-05
96 *0:96 4.0799999999999995e-08
97 *0:97 2.5157e-05
98 *0:98 2.5536e-07
99 *0:99 2.5157e-05
100 *0:100 2.5157e-05
101 *0:101 2.0399999999999997e-08
102 *0:102 2.5157e-05
103 *0:103 2.688e-08
104 *0:104 2.5157e-05
105 *0:105 6.119999999999999e-08
106 *0:106 1.632e-08
107 *0:107 1.6319999999999998e-07
108 *0:108 2.5157e-05
109 *0:109 8.736e-08
110 *0:110 2.5157e-05
111 *0:111 1.02e-07
112 *0:112 2.5157e-05
113 *0:113 2.688e-08
114 *0:114 2.5157e-05
115 *0:115 4.0799999999999995e-08
116 *0:116 2.5157e-05
117 *0:117 5.376e-08
118 *0:118 2.5157e-05
119 *0:119 2.0399999999999997e-08
120 *0:120 1.632e-08
121 *0:121 2.2439999999999997e-07
122 *0:122 2.5157e-05
123 *0:123 1.5455999999999998e-07
124 *0:124 2.5157e-05
125 *0:125 1.836e-07
126 *0:126 2.5157e-05
*RES
0 BUFX4_8:A *0:1 186.6666666666667
1 *0:1 *0:2 5.0
2 *0:2 *0:3 233.33333333333337
3 *0:3 *0:4 186.6666666666667
4 *0:4 *0:5 1633.3333333333337
5 *0:5 *0:6 5.0
6 *0:6 *0:7 373.3333333333334
7 *0:7 *0:8 5.0
8 *0:8 *0:9 233.33333333333337
9 *0:9 *0:10 373.3333333333334