*SPEF "IEEE 1481-1998"
*DESIGN "uart"
*DESIGN_FLOW "PIN_CAP NONE"
*DIVIDER"/"
*DELIMITER :
*BUS_DELIMITER"<>"
T_UNIT 1.00000 NS
*C_UNIT 1.00000 FF
*R_UNIT 1.00000 OHM
*L_UNIT 1.00000 HENRY


*NAME_MAP
*0 _13_
*1 _13__bF$buf3
*2 _13__bF$buf2
*3 _13__bF$buf1
*4 _13__bF$buf0
*5 clk
*6 clk_bF$buf6
*7 clk_bF$buf5
*8 clk_bF$buf4
*9 clk_bF$buf3
*10 clk_bF$buf2
*11 clk_bF$buf1
*12 clk_bF$buf0
*13 reset
*14 _233_
*15 tx_wr
*16 _14_
*17 tx_bitcount<1>
*18 _15_
*19 tx_bitcount<3>
*20 _16_
*21 tx_bitcount<2>
*22 _17_
*23 _18_
*24 _19_
*25 tx_bitcount<0>
*26 _20_
*27 enable16_counter<3>
*28 enable16_counter<2>
*29 _21_
*30 enable16_counter<1>
*31 enable16_counter<0>
*32 _22_
*33 _23_
*34 enable16_counter<4>
*35 enable16_counter<7>
*36 _24_
*37 enable16_counter<5>
*38 enable16_counter<6>
*39 _25_
*40 _26_
*41 _27_
*42 enable16_counter<8>
*43 enable16_counter<11>
*44 _28_
*45 enable16_counter<9>
*46 enable16_counter<10>
*47 _29_
*48 _30_
*49 enable16_counter<15>
*50 enable16_counter<12>
*51 _31_
*52 enable16_counter<14>
*53 enable16_counter<13>
*54 _32_
*55 _33_
*56 _34_
*57 _35_
*58 tx_count16<1>
*59 tx_count16<0>
*60 _36_
*61 tx_count16<3>
*62 tx_count16<2>
*63 _37_
*64 _38_
*65 _39_
*66 _40_
*67 _9_
*68 _41_
*69 _42_
*70 _43_
*71 _44_
*72 _45_
*73 _46_
*74 _47_
*75 _8_<0>
*76 _48_
*77 _49_
*78 _50_
*79 _51_
*80 _52_
*81 _53_
*82 _54_
*83 _8_<1>
*84 _55_
*85 _56_
*86 _57_
*87 _58_
*88 _59_
*89 _60_
*90 _61_
*91 _8_<2>
*92 _62_
*93 _63_
*94 _64_
*95 _65_
*96 _8_<3>
*97 _66_
*98 _67_
*99 _68_
*100 _69_
*101 _70_
*102 _10_<0>
*103 _71_
*104 _72_
*105 _73_
*106 _74_
*107 _10_<1>
*108 _75_
*109 _76_
*110 _77_
*111 _10_<2>
*112 _78_
*113 _79_
*114 _80_
*115 _81_
*116 _82_
*117 _10_<3>
*118 _83_
*119 txd_reg<1>
*120 _84_
*121 _85_
*122 txd_reg<0>
*123 _86_
*124 tx_data<0>
*125 _87_
*126 _11_<0>
*127 txd_reg<2>
*128 _88_
*129 _89_
*130 _90_
*131 tx_data<1>
*132 _91_
*133 _11_<1>
*134 txd_reg<3>
*135 _92_
*136 _93_
*137 _94_
*138 tx_data<2>
*139 _95_
*140 _11_<2>
*141 txd_reg<4>
*142 _96_
*143 _97_
*144 _98_
*145 tx_data<3>
*146 _99_
*147 _11_<3>
*148 txd_reg<5>
*149 _100_
*150 _101_
*151 _102_
*152 tx_data<4>
*153 _103_
*154 _11_<4>
*155 txd_reg<6>
*156 _104_
*157 _105_
*158 _106_
*159 tx_data<5>
*160 _107_
*161 _11_<5>
*162 txd_reg<7>
*163 _108_
*164 _109_
*165 _110_
*166 tx_data<6>
*167 _111_
*168 _11_<6>
*169 tx_data<7>
*170 _112_
*171 _113_
*172 _114_
*173 _11_<7>
*174 _231_<0>
*175 _115_
*176 rxd_reg<0>
*177 _116_
*178 uart_rxd2
*179 _117_
*180 rx_busy
*181 _118_
*182 rx_bitcount<2>
*183 _119_
*184 rx_bitcount<1>
*185 _120_
*186 _121_
*187 rx_bitcount<3>
*188 rx_bitcount<0>
*189 _122_
*190 _123_
*191 rx_count16<1>
*192 rx_count16<0>
*193 _124_
*194 rx_count16<3>
*195 rx_count16<2>
*196 _125_
*197 _126_
*198 _127_
*199 _128_
*200 _129_
*201 _5_<0>
*202 _231_<1>
*203 _130_
*204 rxd_reg<1>
*205 _131_
*206 _5_<1>
*207 _231_<2>
*208 _132_
*209 rxd_reg<2>
*210 _133_
*211 _5_<2>
*212 _231_<3>
*213 _134_
*214 rxd_reg<3>
*215 _135_
*216 _5_<3>
*217 _231_<4>
*218 _136_
*219 rxd_reg<4>
*220 _137_
*221 _5_<4>
*222 _231_<5>
*223 _138_
*224 rxd_reg<5>
*225 _139_
*226 _5_<5>
*227 _231_<6>
*228 _140_
*229 rxd_reg<6>
*230 _141_
*231 _5_<6>
*232 _231_<7>
*233 _142_
*234 rxd_reg<7>
*235 _143_
*236 _5_<7>
*237 rx_ack
*238 _144_
*239 _230_
*240 _145_
*241 _1_
*242 _232_
*243 _146_
*244 _147_
*245 _148_
*246 _6_
*247 _149_
*248 _150_
*249 _151_
*250 _152_
*251 _153_
*252 _154_
*253 _155_
*254 _156_
*255 _157_
*256 _158_
*257 _159_
*258 _3_
*259 _160_
*260 _161_
*261 _162_
*262 _4_<0>
*263 _163_
*264 _164_
*265 _165_
*266 _4_<1>
*267 _166_
*268 _167_
*269 _168_
*270 _169_
*271 _4_<2>
*272 _170_
*273 _171_
*274 _172_
*275 _173_
*276 _4_<3>
*277 _174_
*278 _175_
*279 _176_
*280 _177_
*281 _178_
*282 _179_
*283 _2_<0>
*284 _180_
*285 _181_
*286 _182_
*287 _183_
*288 _2_<1>
*289 _184_
*290 _185_
*291 _186_
*292 _187_
*293 _188_
*294 _2_<2>
*295 _189_
*296 _190_
*297 _191_
*298 _2_<3>
*299 _192_
*300 _193_
*301 _7_<0>
*302 _7_<1>
*303 _7_<2>
*304 _7_<3>
*305 _7_<4>
*306 _7_<5>
*307 _7_<6>
*308 _7_<7>
*309 _194_
*310 _0_<0>
*311 _195_
*312 _0_<1>
*313 _196_
*314 _197_
*315 _198_
*316 _0_<2>
*317 _199_
*318 _0_<3>
*319 _200_
*320 _0_<4>
*321 _201_
*322 _202_
*323 _203_
*324 _0_<5>
*325 _204_
*326 _205_
*327 _0_<6>
*328 _206_
*329 _207_
*330 _0_<7>
*331 _208_
*332 _209_
*333 _210_
*334 _0_<8>
*335 _211_
*336 _212_
*337 _0_<9>
*338 _213_
*339 _214_
*340 _0_<10>
*341 _215_
*342 _216_
*343 _0_<11>
*344 _217_
*345 _218_
*346 _219_
*347 _0_<12>
*348 _220_
*349 _221_
*350 _222_
*351 _0_<13>
*352 _223_
*353 _224_
*354 _0_<14>
*355 _225_
*356 _0_<15>
*357 _226_
*358 _227_
*359 _228_
*360 _234_
*361 _229_
*362 _12_
*363 rx_avail
*364 rx_data<0>
*365 rx_data<1>
*366 rx_data<2>
*367 rx_data<3>
*368 rx_data<4>
*369 rx_data<5>
*370 rx_data<6>
*371 rx_data<7>
*372 rx_error
*373 tx_busy
*374 uart_txd
*375 uart_rxd
*376 uart_rxd1

*D_NET *0 0.0007504100000000001
*CONN
*I INVX8_1:Y O
*I BUFX2_1:A I
*I BUFX4_3:A I
*I BUFX4_2:A I
*I BUFX4_1:A I
*CAP
0 *0:1 2.5157e-05
1 *0:2 3.1877e-05
2 *0:3 0.000132677
3 *0:4 5.0314e-05
4 *0:5 2.5157e-05
5 *0:6 0.00012240000000000002
6 *0:7 2.5157e-05
7 *0:9 0.0001824
8 *0:10 2.5157e-05
9 *0:11 2.0399999999999998e-05
10 *0:12 2.5157e-05
11 *0:8 2.5157e-05
12 *0:13 5.7600000000000004e-05
13 *0:14 1.8000000000000001e-06
*RES
0 BUFX2_1A *0:1 5.0
1 *0:1 *0:2 5.0
2 *0:2 *0:3 2.986666666666667
3 *0:3 *0:4 5.0
4 BUFX4_1A *0:4 5.0
5 INVX8_1Y *0:5 5.0
6 *0:5 *0:6 1.4000000000000004
7 *0:6 *0:7 5.0
8 *0:7 *0:2 0.18666666666666668
9 *0:8 *0:9 1.2666666666666666
10 *0:9 *0:3 5.0
11 BUFX4_2A *0:10 5.0
12 *0:10 *0:11 0.23333333333333336
13 *0:11 *0:12 5.0
14 *0:12 *0:8 5.0
15 BUFX4_3A *0:13 0.37333333333333335
16 *0:13 *0:14 0.011666666666666667
*END

*D_NET *1 0.0016467150000000002
*CONN
*I NAND2X1_22:A I
*I NAND3X1_11:A I
*I NAND3X1_13:A I
*I OAI21X1_39:C I
*I NAND2X1_15:A I
*I NAND2X1_18:A I
*I BUFX4_1:Y O
*CAP
14 *1:1 0.00020875699999999998
15 *1:2 8.16e-05
16 *1:3 1.632e-05
17 *1:4 0.00028559999999999995
18 BUFX4_1Y 2.5157e-05
19 *1:5 2.5157e-05
20 *1:6 4.0799999999999996e-05
21 *1:7 2.5157e-05
22 *1:8 2.016e-05
23 *1:9 2.5157e-05
24 *1:10 2.5157e-05
25 *1:11 2.0399999999999998e-05
26 *1:12 2.5157e-05
27 *1:13 0.00011424
28 *1:14 2.5157e-05
29 *1:15 2.5157e-05
30 *1:16 4.0799999999999996e-05
31 *1:17 6.5477e-05
32 *1:18 0.00014112
33 *1:19 2.5157e-05
34 *1:20 2.5157e-05
35 *1:21 4.0799999999999996e-05
36 *1:22 0.00012595699999999997
37 *1:23 2.5157e-05
38 *1:24 0.00014279999999999997
39 *1:25 2.5157e-05
*RES
17 NAND3X1_11A *1:1 5.0
18 *1:1 *1:2 0.7000000000000002
19 *1:2 *1:3 0.18666666666666668
20 *1:3 *1:4 3.2666666666666675
21 *1:4 BUFX4_1Y 5.0
22 NAND2X1_22A *1:5 5.0
23 *1:5 *1:6 0.46666666666666673
24 *1:6 *1:7 5.0
25 *1:7 *1:8 0.56
26 *1:8 *1:9 5.0
27 *1:9 *1:1 2.1
28 OAI21X1_39C *1:10 5.0
29 *1:10 *1:11 0.23333333333333336
30 *1:11 *1:12 5.0
31 *1:12 *1:13 3.173333333333334
32 *1:13 *1:14 5.0
33 NAND2X1_18A *1:15 5.0
34 *1:15 *1:16 0.46666666666666673
35 *1:16 *1:17 5.0
36 *1:17 *1:18 3.9200000000000004
37 *1:18 *1:19 5.0
38 *1:19 *1:2 0.23333333333333336
39 NAND2X1_15A *1:20 5.0
40 *1:20 *1:21 0.46666666666666673
41 *1:21 *1:22 5.0
42 *1:22 *1:17 1.12
43 NAND3X1_13A *1:23 5.0
44 *1:23 *1:24 1.6333333333333337
45 *1:24 *1:25 5.0
46 *1:25 *1:22 2.8000000000000007
*END

*D_NET *2 0.0012741240000000002
*CONN
*I OAI21X1_32:A I
*I OAI21X1_62:C I
*I OAI21X1_1:C I
*I NAND2X1_27:A I
*I AND2X2_1:B I
*I OAI21X1_2:C I
*I BUFX4_2:Y O
*CAP
40 *2:1 2.5157e-05
41 *2:2 0.00024072
42 *2:3 0.00010200000000000001
43 BUFX4_2Y 2.5157e-05
44 *2:4 5.0314e-05
45 *2:5 2.5157e-05
46 *2:6 7.8917e-05
47 *2:7 4.032e-05
48 *2:8 2.5157e-05
49 *2:9 2.0399999999999998e-05
50 *2:10 0.000166277
51 *2:11 2.5157e-05
52 *2:12 3.1877e-05
53 *2:13 2.5157e-05
54 *2:14 0.0003672
55 *2:15 2.5157e-05
*RES
47 OAI21X1_32A *2:1 5.0
48 *2:1 *2:2 0.18666666666666668
49 *2:2 *2:3 1.1666666666666667
50 *2:3 BUFX4_2Y 5.0
51 OAI21X1_1C *2:4 5.0
52 *2:4 *2:2 2.5666666666666673
53 OAI21X1_2C *2:5 5.0
54 *2:5 *2:6 5.0
55 *2:6 *2:7 1.12
56 *2:7 *2:4 5.0
57 AND2X2_1B *2:8 5.0
58 *2:8 *2:9 0.23333333333333336
59 *2:9 *2:10 5.0
60 *2:10 *2:6 1.4933333333333334
61 OAI21X1_62C *2:11 5.0
62 *2:11 *2:12 5.0
63 *2:12 *2:10 3.9200000000000004
64 NAND2X1_27A *2:13 5.0
65 *2:13 *2:14 4.2
66 *2:14 *2:15 5.0
67 *2:15 *2:12 0.18666666666666668
*END

*D_NET *3 0.0019163460000000002
*CONN
*I OAI22X1_3:A I
*I OAI22X1_1:A I
*I OAI22X1_4:A I
*I OAI22X1_5:A I
*I OAI22X1_2:A I
*I NAND2X1_9:A I
*I BUFX4_3:Y O
*CAP
56 *3:1 4.5557e-05
57 *3:2 2.5157e-05
58 *3:3 0.00011424
59 *3:4 5.0314e-05
60 *3:5 2.5157e-05
61 *3:6 2.0399999999999998e-05
62 *3:7 2.5157e-05
63 *3:8 0.00020832
64 *3:9 2.5157e-05
65 *3:10 5.0314e-05
66 *3:11 8.159999999999999e-05
67 *3:12 1.632e-05
68 *3:13 0.00030599999999999996
69 *3:14 2.5157e-05
70 *3:15 2.5157e-05
71 *3:16 2.5157e-05
72 *3:17 0.00010752
73 *3:18 2.5157e-05
74 *3:19 0.0002652
75 *3:20 2.5157e-05
76 *3:21 2.5157e-05
77 *3:22 2.5157e-05
78 *3:23 6.72e-06
79 *3:24 2.5157e-05
80 *3:25 0.0003168
81 *3:26 2.5157e-05
*RES
68 OAI22X1_1A *3:1 5.0
69 *3:1 *3:2 5.0
70 *3:2 *3:3 1.4933333333333334
71 *3:3 *3:4 5.0
72 BUFX4_3Y *3:4 5.0
73 OAI22X1_3A *3:5 5.0
74 *3:5 *3:6 0.23333333333333336
75 *3:6 *3:7 5.0
76 *3:7 *3:8 5.786666666666667
77 *3:8 *3:9 5.0
78 *3:9 *3:1 0.23333333333333336
79 OAI22X1_2A *3:10 5.0
80 *3:10 *3:11 0.9333333333333335
81 *3:11 *3:12 0.18666666666666668
82 *3:12 *3:13 3.5000000000000004
83 *3:13 *3:14 5.0
84 OAI22X1_4A *3:15 5.0
85 *3:15 *3:16 5.0
86 *3:16 *3:17 2.986666666666667
87 *3:17 *3:10 5.0
88 OAI22X1_5A *3:18 5.0
89 *3:18 *3:19 3.0333333333333337
90 *3:19 *3:20 5.0
91 NAND2X1_9A *3:21 5.0
92 *3:21 *3:22 5.0
93 *3:22 *3:23 0.18666666666666668
94 *3:23 *3:24 5.0
95 *3:24 *3:25 2.2
96 *3:25 *3:26 5.0
97 *3:26 *3:3 1.6800000000000004
*END

*D_NET *4 0.0011700500000000004
*CONN
*I OAI21X1_36:C I
*I NAND2X1_25:A I
*I NAND2X1_20:A I
*I OAI21X1_37:C I
*I OAI21X1_45:C I
*I BUFX2_1:Y O
*CAP
82 *4:1 2.5157e-05
83 *4:2 0.00019992
84 *4:3 0.00016319999999999998
85 BUFX2_1Y 2.5157e-05
86 NAND2X1_25A 2.8800000000000002e-05
87 *4:4 2.5157e-05
88 *4:5 3.1877e-05
89 *4:6 0.00026208
90 *4:7 2.5157e-05
91 *4:8 2.5157e-05
92 *4:10 5.376e-05
93 *4:11 2.5157e-05
94 *4:12 0.0001836
95 *4:13 2.5157e-05
96 *4:14 2.5157e-05
97 *4:15 2.0399999999999998e-05
98 *4:9 2.5157e-05
*RES
98 NAND2X1_25A *4:1 5.0
99 *4:1 *4:2 0.18666666666666668
100 *4:2 *4:3 1.866666666666667
101 *4:3 BUFX2_1Y 5.0
102 NAND2X1_20A NAND2X1_25A 0.18666666666666668
103 OAI21X1_45C *4:4 5.0
104 *4:4 *4:5 5.0
105 *4:5 *4:6 7.280000000000001
106 *4:6 *4:7 5.0
107 *4:7 *4:2 2.1
108 OAI21X1_36C *4:8 5.0
109 *4:9 *4:10 1.4933333333333334
110 *4:10 *4:11 5.0
111 *4:8 *4:12 2.1
112 *4:12 *4:13 5.0
113 OAI21X1_37C *4:14 5.0
114 *4:14 *4:15 0.23333333333333336
115 *4:15 *4:9 5.0
116 *4:13 *4:5 0.18666666666666668
*END

*D_NET *5 0.0026623780000000013
*CONN
*P clk O
*I BUFX4_10:A I
*I BUFX4_9:A I
*I BUFX4_8:A I
*I BUFX4_7:A I
*I BUFX4_6:A I
*I BUFX4_5:A I
*I BUFX4_4:A I
*CAP
99 *5:1 2.5157e-05
100 *5:2 4.0799999999999996e-05
101 *5:3 0.000307397
102 *5:4 1.344e-05
103 *5:5 2.5157e-05
104 *5:6 0.00034679999999999997
105 BUFX4_4A 2.5157e-05
106 *5:7 2.5157e-05
107 *5:8 0.0003672
108 *5:9 2.5157e-05
109 *5:10 2.8800000000000002e-05
110 *5:11 5.0314e-05
111 *5:12 0.0003264
112 *5:13 2.5157e-05
113 *5:14 0.00011424
114 *5:15 2.5157e-05
115 *5:16 2.5157e-05
116 *5:17 2.5157e-05
117 *5:18 2.016e-05
118 *5:19 2.5157e-05
119 *5:20 8.159999999999999e-05
120 *5:21 2.5157e-05
121 *5:22 0.00015455999999999998
122 *5:23 2.5157e-05
123 *5:24 3.8555e-05
124 *5:25 2.5157e-05
125 *5:26 0.00020159999999999997
126 *5:27 2.5157e-05
127 *5:28 0.000168
128 *5:29 2.5157e-05
129 *5:30 2.5157e-05
*RES
117 BUFX4_9A *5:1 5.0
118 *5:1 *5:2 0.46666666666666673
119 *5:2 *5:3 5.0
120 *5:3 *5:4 0.37333333333333335
121 *5:4 *5:5 5.0
122 *5:5 *5:6 2.1
123 *5:6 BUFX4_4A 5.0
124 BUFX4_7A *5:7 5.0
125 *5:7 *5:8 0.46666666666666673
126 *5:8 *5:9 5.0
127 *5:9 *5:3 7.840000000000001
128 BUFX4_10A *5:10 0.18666666666666668
129 *5:10 *5:11 5.0
130 *5:11 *5:12 3.0333333333333337
131 *5:12 *5:13 5.0
132 *5:13 *5:14 3.173333333333334
133 *5:14 *5:15 5.0
134 *5:15 *5:8 3.733333333333334
135 BUFX4_8A *5:16 5.0
136 *5:16 *5:17 5.0
137 *5:17 *5:18 0.56
138 *5:18 *5:11 5.0
139 BUFX4_5A *5:19 5.0
140 *5:19 *5:20 0.9333333333333335
141 *5:20 *5:21 5.0
142 *5:21 *5:22 4.293333333333334
143 *5:22 *5:23 5.0
144 *5:23 *5:12 0.7000000000000002
145 clk :24 0.3721666666666667
146 *5:24 *5:25 5.0
147 *5:25 *5:26 1.4
148 *5:26 *5:27 5.0
149 *5:27 *5:28 4.666666666666667
150 *5:28 *5:29 5.0
151 *5:30 *5:24 5.0
152 BUFX4_6A *5:30 5.0
153 *5:29 *5:6 1.866666666666667
*END

*D_NET *6 0.0019245490000000004
*CONN
*I DFFPOSX1_58:CLK I
*I DFFPOSX1_42:CLK I
*I DFFPOSX1_50:CLK I
*I DFFPOSX1_56:CLK I
*I DFFPOSX1_48:CLK I
*I DFFPOSX1_49:CLK I
*I DFFPOSX1_22:CLK I
*I DFFPOSX1_21:CLK I
*I DFFPOSX1_23:CLK I
*I BUFX4_4:Y O
*CAP
130 *6:1 2.5157e-05
131 *6:2 0.00016319999999999998
132 *6:3 2.5157e-05
133 BUFX4_4Y 2.8800000000000002e-05
134 *6:4 2.5157e-05
135 *6:5 0.00012240000000000002
136 DFFPOSX1_56CLK 2.6957e-05
137 *6:6 2.5157e-05
138 *6:7 0.00040800000000000005
139 *6:8 2.5157e-05
140 DFFPOSX1_23CLK 1.2599999999999998e-05
141 *6:9 0.000290357
142 *6:10 2.5157e-05
143 *6:11 2.5157e-05
144 *6:12 8.563700000000001e-05
145 *6:13 6.72e-05
146 *6:14 2.5157e-05
147 *6:15 2.5157e-05
148 *6:16 0.00010200000000000001
149 DFFPOSX1_42CLK 2.5157e-05
150 *6:17 2.5157e-05
151 *6:18 2.0399999999999998e-05
152 *6:19 2.5157e-05
153 *6:21 0.00024480000000000004
154 DFFPOSX1_50CLK 2.5157e-05
155 *6:20 2.5157e-05
*RES
154 DFFPOSX1_56CLK *6:1 5.0
155 *6:1 *6:2 1.6333333333333337
156 *6:2 *6:3 5.0
157 *6:3 BUFX4_4Y 0.18666666666666668
158 DFFPOSX1_23CLK *6:4 5.0
159 *6:4 *6:5 1.4000000000000004
160 *6:5 DFFPOSX1_56CLK 5.0
161 DFFPOSX1_56CLK DFFPOSX1_56CLK 0.011666666666666667
162 DFFPOSX1_21CLK *6:6 5.0
163 *6:6 *6:7 2.3333333333333335
164 *6:7 *6:8 5.0
165 *6:8 DFFPOSX1_23CLK 0.08166666666666668
166 DFFPOSX1_22CLK *6:9 5.0
167 *6:9 *6:7 2.3333333333333335
168 DFFPOSX1_58CLK *6:10 5.0
169 *6:10 *6:9 3.0333333333333337
170 DFFPOSX1_42CLK *6:11 5.0
171 *6:11 *6:12 5.0
172 *6:12 *6:13 1.866666666666667
173 *6:13 *6:14 5.0
174 *6:14 *6:2 0.23333333333333336
175 DFFPOSX1_48CLK *6:15 5.0
176 *6:15 *6:16 1.1666666666666667
177 *6:16 DFFPOSX1_42CLK 5.0
178 DFFPOSX1_50CLK *6:17 5.0
179 *6:17 *6:18 0.23333333333333336
180 *6:18 *6:19 5.0
181 *6:20 *6:21 2.8000000000000007
182 *6:21 DFFPOSX1_50CLK 5.0
183 DFFPOSX1_49CLK *6:20 5.0
184 *6:19 *6:12 1.6800000000000004
*END

*D_NET *7 0.002889331
*CONN
*I DFFPOSX1_47:CLK I
*I DFFPOSX1_46:CLK I
*I DFFPOSX1_30:CLK I
*I DFFPOSX1_36:CLK I
*I DFFPOSX1_31:CLK I
*I DFFPOSX1_35:CLK I
*I DFFPOSX1_32:CLK I
*I DFFPOSX1_37:CLK I
*I DFFPOSX1_34:CLK I
*I BUFX4_5:Y O
*CAP
156 *7:1 0.00037195699999999996
157 *7:2 6.120000000000001e-05
158 *7:3 2.5157e-05
159 *7:4 0.00011424
160 *7:5 2.5157e-05
161 *7:6 0.00024480000000000004
162 BUFX4_5Y 2.5157e-05
163 *7:7 2.5157e-05
164 *7:8 6.120000000000001e-05
165 *7:9 2.5157e-05
166 *7:10 2.688e-05
167 *7:11 6.595699999999999e-05
168 *7:12 2.5157e-05
169 *7:13 2.0399999999999998e-05
170 *7:14 0.000186437
171 *7:15 0.00011424
172 *7:16 2.5157e-05
173 *7:17 2.5157e-05
174 *7:18 2.0399999999999998e-05
175 *7:19 0.000105797
176 *7:20 2.5157e-05
177 *7:21 0.00034679999999999997
178 *7:22 2.5157e-05
179 *7:23 0.00031075699999999994
180 *7:24 0.0001836
181 *7:25 2.5157e-05
182 *7:26 2.688e-05
183 *7:27 2.5157e-05
184 *7:28 5.0314e-05
185 *7:29 2.5157e-05
186 *7:30 0.00012595699999999997
187 *7:31 5.376e-05
188 *7:32 2.5157e-05
189 *7:33 2.0399999999999998e-05
190 *7:34 2.5157e-05
*RES
185 DFFPOSX1_35CLK *7:1 5.0
186 *7:1 *7:2 0.7000000000000002
187 *7:2 *7:3 5.0
188 *7:3 *7:4 3.173333333333334
189 *7:4 *7:5 5.0
190 *7:5 *7:6 2.8000000000000007
191 *7:6 BUFX4_5Y 5.0
192 DFFPOSX1_32CLK *7:7 5.0
193 *7:7 *7:8 0.7000000000000002
194 *7:8 *7:9 5.0
195 *7:9 *7:10 0.7466666666666667
196 *7:10 *7:11 5.0
197 *7:11 *7:1 3.9666666666666672
198 DFFPOSX1_34CLK *7:12 5.0
199 *7:12 *7:13 0.23333333333333336
200 *7:13 *7:14 5.0
201 *7:14 *7:15 3.173333333333334
202 *7:15 *7:16 5.0
203 *7:16 *7:11 0.46666666666666673
204 DFFPOSX1_31CLK *7:17 5.0
205 *7:17 *7:18 0.23333333333333336
206 *7:18 *7:19 5.0
207 *7:19 *7:14 4.48
208 DFFPOSX1_30CLK *7:20 5.0
209 *7:20 *7:21 0.23333333333333336
210 *7:21 *7:22 5.0
211 *7:22 *7:19 2.24
212 DFFPOSX1_36CLK *7:23 5.0
213 *7:23 *7:24 2.1
214 *7:24 *7:25 5.0
215 *7:25 *7:26 0.7466666666666667
216 *7:26 *7:27 5.0
217 *7:27 *7:21 3.733333333333334
218 DFFPOSX1_46CLK *7:28 5.0
219 *7:28 *7:23 3.2666666666666675
220 DFFPOSX1_47CLK *7:29 5.0
221 *7:29 *7:30 5.0
222 *7:30 *7:31 1.4933333333333334
223 *7:31 *7:28 5.0
224 DFFPOSX1_37CLK *7:32 5.0
225 *7:32 *7:33 0.23333333333333336
226 *7:33 *7:34 5.0
227 *7:34 *7:30 2.8000000000000007
*END

*D_NET *8 0.0018137460000000004
*CONN
*I DFFPOSX1_57:CLK I
*I DFFPOSX1_60:CLK I
*I DFFPOSX1_55:CLK I
*I DFFPOSX1_62:CLK I
*I DFFPOSX1_54:CLK I
*I DFFPOSX1_63:CLK I
*I DFFPOSX1_61:CLK I
*I DFFPOSX1_13:CLK I
*I DFFPOSX1_59:CLK I
*I BUFX4_6:Y O
*CAP
191 *8:2 1.8000000000000001e-06
192 BUFX4_6Y 5.7600000000000004e-05
193 *8:3 2.5157e-05
194 *8:4 0.00024480000000000004
195 DFFPOSX1_59CLK 2.5157e-05
196 *8:5 2.5157e-05
197 *8:6 0.00010200000000000001
198 DFFPOSX1_62CLK 2.5157e-05
199 *8:7 2.5157e-05
200 *8:8 0.000105797
201 *8:9 0.00020159999999999997
202 *8:10 5.0314e-05
203 DFFPOSX1_61CLK 1.8000000000000001e-06
204 *8:11 2.5157e-05
205 *8:12 2.5157e-05
206 *8:13 0.000249557
207 *8:14 0.00016319999999999998
208 *8:15 2.5157e-05
209 *8:16 5.7600000000000004e-05
210 *8:17 1.8000000000000001e-06
211 *8:18 4.5557e-05
212 *8:19 2.5157e-05
213 *8:20 0.00014279999999999997
214 DFFPOSX1_54CLK 2.5157e-05
215 *8:21 2.5157e-05
216 *8:22 2.5157e-05
217 *8:23 6.0480000000000004e-05
218 *8:24 2.5157e-05
*RES
228 *8:1 *8:2 0.011666666666666667
229 *8:2 BUFX4_6Y 0.37333333333333335
230 DFFPOSX1_62CLK *8:3 5.0
231 *8:3 *8:4 2.8000000000000007
232 *8:4 DFFPOSX1_59CLK 5.0
233 DFFPOSX1_61CLK *8:5 5.0
234 *8:5 *8:6 1.1666666666666667
235 *8:6 DFFPOSX1_62CLK 5.0
236 DFFPOSX1_63CLK *8:7 5.0
237 *8:7 *8:8 5.0
238 *8:8 *8:9 5.600000000000001
239 *8:9 *8:10 5.0
240 DFFPOSX1_61CLK *8:10 5.0
241 DFFPOSX1_61CLK DFFPOSX1_61CLK 0.011666666666666667
242 DFFPOSX1_60CLK *8:11 5.0
243 *8:11 *8:12 5.0
244 *8:12 *8:8 2.24
245 DFFPOSX1_54CLK *8:13 5.0
246 *8:13 *8:14 1.866666666666667
247 *8:14 *8:15 5.0
248 *8:15 *8:16 0.37333333333333335
249 *8:16 *8:17 0.011666666666666667
250 DFFPOSX1_55CLK *8:18 5.0
251 *8:18 *8:13 2.5666666666666673
252 DFFPOSX1_13CLK *8:19 5.0
253 *8:19 *8:20 1.6333333333333337
254 *8:20 DFFPOSX1_54CLK 5.0
255 DFFPOSX1_57CLK *8:21 5.0
256 *8:21 *8:22 5.0
257 *8:22 *8:23 1.6800000000000004
258 *8:23 *8:24 5.0
259 *8:24 *8:18 0.23333333333333336
*END

*D_NET *9 0.002816063
*CONN
*I DFFPOSX1_51:CLK I
*I DFFPOSX1_45:CLK I
*I DFFPOSX1_16:CLK I
*I DFFPOSX1_27:CLK I
*I DFFPOSX1_14:CLK I
*I DFFPOSX1_28:CLK I
*I DFFPOSX1_24:CLK I
*I DFFPOSX1_26:CLK I
*I DFFPOSX1_33:CLK I
*I BUFX4_7:Y O
*CAP
219 *9:1 2.5157e-05
220 *9:2 0.00016319999999999998
221 BUFX4_7Y 5.0314e-05
222 *9:3 2.5157e-05
223 *9:4 2.5157e-05
224 *9:5 4.032e-05
225 *9:6 0.00043315700000000004
226 *9:7 0.00010200000000000001
227 *9:8 2.5157e-05
228 *9:9 2.5157e-05
229 *9:10 0.00034679999999999997
230 *9:11 2.5157e-05
231 DFFPOSX1_28CLK 1.2599999999999998e-05
232 *9:12 0.000453557
233 *9:13 0.00016795699999999996
234 DFFPOSX1_24CLK 3.0557e-05
235 *9:14 2.8800000000000002e-05
236 *9:15 2.5157e-05
237 *9:16 2.5157e-05
238 *9:17 2.5157e-05
239 *9:18 0.00012096000000000001
240 *9:19 2.5157e-05
241 *9:20 0.00012240000000000002
242 DFFPOSX1_33CLK 2.5157e-05
243 *9:21 2.5157e-05
244 *9:22 0.00038760000000000004
245 *9:23 2.5157e-05
246 DFFPOSX1_27CLK 2.8800000000000002e-05
*RES
260 DFFPOSX1_14CLK *9:1 5.0
261 *9:1 *9:2 1.866666666666667
262 *9:2 BUFX4_7Y 5.0
263 DFFPOSX1_28CLK *9:3 5.0
264 *9:3 *9:4 5.0
265 *9:4 *9:5 1.12
266 *9:5 *9:6 5.0
267 *9:6 *9:7 1.1666666666666667
268 *9:7 BUFX4_7Y 5.0
269 DFFPOSX1_26CLK *9:8 5.0
270 *9:8 *9:6 4.666666666666667
271 DFFPOSX1_24CLK *9:9 5.0
272 *9:9 *9:10 3.9666666666666672
273 *9:10 *9:11 5.0
274 *9:11 DFFPOSX1_28CLK 0.08166666666666668
275 DFFPOSX1_45CLK *9:12 5.0
276 *9:12 *9:13 1.6333333333333337
277 *9:13 DFFPOSX1_24CLK 5.0
278 DFFPOSX1_24CLK DFFPOSX1_24CLK 0.035
279 DFFPOSX1_51CLK *9:14 0.18666666666666668
280 *9:14 *9:15 5.0
281 *9:15 *9:12 4.9
282 DFFPOSX1_33CLK *9:16 5.0
283 *9:16 *9:17 5.0
284 *9:17 *9:18 3.3600000000000008
285 *9:18 *9:13 5.0
286 DFFPOSX1_27CLK *9:19 5.0
287 *9:19 *9:20 1.4000000000000004
288 *9:20 DFFPOSX1_33CLK 5.0
289 DFFPOSX1_16CLK *9:21 5.0
290 *9:21 *9:22 4.433333333333334
291 *9:22 *9:23 5.0
292 *9:23 DFFPOSX1_27CLK 0.18666666666666668
*END

*D_NET *10 0.0028214110000000002
*CONN
*I DFFPOSX1_6:CLK I
*I DFFPOSX1_3:CLK I
*I DFFPOSX1_11:CLK I
*I DFFPOSX1_10:CLK I
*I DFFPOSX1_7:CLK I
*I DFFPOSX1_5:CLK I
*I DFFPOSX1_8:CLK I
*I DFFPOSX1_9:CLK I
*I DFFPOSX1_1:CLK I
*I BUFX4_8:Y O
*CAP
247 *10:1 0.00018835699999999997
248 *10:2 4.0799999999999996e-05
249 *10:3 1.632e-05
250 *10:4 0.00032639999999999996
251 BUFX4_8Y 2.5157e-05
252 *10:5 2.5157e-05
253 *10:6 2.5157e-05
254 *10:7 2.5157e-05
255 *10:8 9.408e-05
256 *10:9 2.5157e-05
257 *10:10 2.5157e-05
258 *10:11 4.0799999999999996e-05
259 *10:12 2.5157e-05
260 *10:13 0.0001344
261 *10:14 2.5157e-05
262 *10:15 4.0799999999999996e-05
263 DFFPOSX1_7CLK 2.6957e-05
264 *10:16 2.5157e-05
265 *10:17 0.00022003700000000002
266 *10:18 6.72e-05
267 *10:19 2.5157e-05
268 *10:20 0.00014279999999999997
269 DFFPOSX1_8CLK 2.6957e-05
270 *10:21 2.5157e-05
271 *10:22 2.5157e-05
272 *10:24 0.00014112
273 *10:25 2.5157e-05
274 *10:26 2.5157e-05
275 *10:27 0.00012240000000000002
276 DFFPOSX1_6CLK 2.5157e-05
277 *10:28 2.5157e-05
278 *10:29 0.0006527999999999999
279 *10:30 2.5157e-05
280 *10:31 2.5157e-05
281 *10:32 6.120000000000001e-05
282 *10:23 2.5157e-05
*RES
293 DFFPOSX1_1CLK *10:1 5.0
294 *10:1 *10:2 0.46666666666666673
295 *10:2 *10:3 0.18666666666666668
296 *10:3 *10:4 3.733333333333334
297 *10:4 BUFX4_8Y 5.0
298 DFFPOSX1_11CLK *10:5 5.0
299 *10:5 *10:1 1.866666666666667
300 DFFPOSX1_7CLK *10:6 5.0
301 *10:6 *10:7 5.0
302 *10:7 *10:8 2.6133333333333337
303 *10:8 *10:9 5.0
304 DFFPOSX1_8CLK *10:10 5.0
305 *10:10 *10:11 0.46666666666666673
306 *10:11 *10:12 5.0
307 *10:12 *10:13 3.733333333333334
308 *10:13 *10:14 5.0
309 *10:14 *10:15 0.46666666666666673
310 *10:15 DFFPOSX1_7CLK 5.0
311 DFFPOSX1_7CLK DFFPOSX1_7CLK 0.011666666666666667
312 DFFPOSX1_9CLK *10:16 5.0
313 *10:16 *10:17 5.0
314 *10:17 *10:18 1.866666666666667
315 *10:18 *10:19 5.0
316 *10:19 *10:20 1.6333333333333337
317 *10:20 DFFPOSX1_8CLK 5.0
318 DFFPOSX1_8CLK DFFPOSX1_8CLK 0.011666666666666667
319 DFFPOSX1_6CLK *10:21 5.0
320 *10:21 *10:22 5.0
321 *10:23 *10:24 3.9200000000000004
322 *10:24 *10:25 5.0
323 DFFPOSX1_10CLK *10:26 5.0
324 *10:26 *10:27 1.4000000000000004
325 *10:27 DFFPOSX1_6CLK 5.0
326 DFFPOSX1_3CLK *10:28 5.0
327 *10:28 *10:29 7.466666666666668
328 *10:29 *10:30 5.0
329 DFFPOSX1_5CLK *10:31 5.0
330 *10:31 *10:32 0.7000000000000002
331 *10:32 *10:23 5.0
332 *10:22 *10:17 5.413333333333334
*END

*D_NET *11 0.0017650260000000007
*CONN
*I DFFPOSX1_40:CLK I
*I DFFPOSX1_25:CLK I
*I DFFPOSX1_41:CLK I
*I DFFPOSX1_44:CLK I
*I DFFPOSX1_39:CLK I
*I DFFPOSX1_20:CLK I
*I DFFPOSX1_19:CLK I
*I DFFPOSX1_38:CLK I
*I DFFPOSX1_43:CLK I
*I BUFX4_9:Y O
*CAP
283 *11:1 0.00026995700000000003
284 *11:2 4.0799999999999996e-05
285 *11:3 0.000139397
286 *11:4 0.000168
287 *11:5 2.5157e-05
288 *11:6 8.159999999999999e-05
289 BUFX4_9Y 2.5157e-05
290 *11:7 2.5157e-05
291 *11:9 1.8000000000000001e-06
292 *11:10 2.8800000000000002e-05
293 *11:11 1.8000000000000001e-06
294 *11:12 2.5157e-05
295 *11:13 0.00012240000000000002
296 DFFPOSX1_44CLK 2.5157e-05
297 *11:14 2.5157e-05
298 *11:15 4.0799999999999996e-05
299 *11:16 2.5157e-05
300 *11:17 2.5157e-05
301 *11:18 0.0001836
302 *11:19 2.5157e-05
303 DFFPOSX1_39CLK 1.2599999999999998e-05
304 *11:20 5.0314e-05
305 *11:21 0.00012240000000000002
306 DFFPOSX1_40CLK 2.5157e-05
307 *11:22 2.5157e-05
308 *11:23 4.0799999999999996e-05
309 *11:24 2.5157e-05
310 *11:25 2.5157e-05
311 *11:26 2.0399999999999998e-05
312 *11:27 2.5157e-05
313 *11:28 8.735999999999999e-05
*RES
333 DFFPOSX1_41CLK *11:1 5.0
334 *11:1 *11:2 0.46666666666666673
335 *11:2 *11:3 5.0
336 *11:3 *11:4 2.0533333333333337
337 *11:4 *11:5 5.0
338 *11:5 *11:6 0.9333333333333335
339 *11:6 BUFX4_9Y 5.0
340 DFFPOSX1_38CLK *11:7 5.0
341 *11:7 *11:1 2.8000000000000007
342 *11:8 *11:9 0.011666666666666667
343 *11:9 *11:10 0.18666666666666668
344 *11:10 *11:11 0.011666666666666667
345 DFFPOSX1_25CLK *11:12 5.0
346 *11:12 *11:13 1.4000000000000004
347 *11:13 DFFPOSX1_44CLK 5.0
348 DFFPOSX1_39CLK *11:14 5.0
349 *11:14 *11:15 0.46666666666666673
350 *11:15 *11:16 5.0
351 *11:16 *11:4 2.6133333333333337
352 DFFPOSX1_40CLK *11:17 5.0
353 *11:17 *11:18 2.1
354 *11:18 *11:19 5.0
355 *11:19 DFFPOSX1_39CLK 0.08166666666666668
356 DFFPOSX1_19CLK *11:20 5.0
357 *11:20 *11:21 1.4000000000000004
358 *11:21 DFFPOSX1_40CLK 5.0
359 DFFPOSX1_43CLK *11:22 5.0
360 *11:22 *11:23 0.46666666666666673
361 *11:23 *11:24 5.0
362 DFFPOSX1_20CLK *11:25 5.0
363 *11:25 *11:26 0.23333333333333336
364 *11:26 *11:27 5.0
365 *11:27 *11:28 2.426666666666667
366 *11:28 *11:20 5.0
367 *11:24 *11:3 3.173333333333334
*END

*D_NET *12 0.0020349060000000004
*CONN
*I DFFPOSX1_17:CLK I
*I DFFPOSX1_18:CLK I
*I DFFPOSX1_2:CLK I
*I DFFPOSX1_29:CLK I
*I DFFPOSX1_52:CLK I
*I DFFPOSX1_15:CLK I
*I DFFPOSX1_53:CLK I
*I DFFPOSX1_12:CLK I
*I DFFPOSX1_4:CLK I
*I BUFX4_10:Y O
*CAP
314 *12:2 1.8000000000000001e-06
315 BUFX4_10Y 5.7600000000000004e-05
316 *12:3 2.5157e-05
317 *12:4 0.0002652
318 DFFPOSX1_53CLK 2.5157e-05
319 *12:5 2.5157e-05
320 *12:6 9.9077e-05
321 *12:7 8.735999999999999e-05
322 *12:8 5.0314e-05
323 *12:9 2.5157e-05
324 *12:10 0.00024480000000000004
325 DFFPOSX1_18CLK 2.5157e-05
326 *12:11 2.5157e-05
327 *12:12 0.00010200000000000001
328 *12:13 0.00019315699999999998
329 *12:14 2.5157e-05
330 *12:15 2.0399999999999998e-05
331 *12:16 2.5157e-05
332 *12:17 2.5157e-05
333 *12:18 0.00012240000000000002
334 DFFPOSX1_4CLK 2.6957e-05
335 *12:19 2.8800000000000002e-05
336 *12:20 2.5157e-05
337 *12:21 0.0002652
338 *12:22 2.5157e-05
339 *12:23 2.5157e-05
340 *12:24 0.00014279999999999997
341 DFFPOSX1_17CLK 2.5157e-05
*RES
368 *12:1 *12:2 0.011666666666666667
369 *12:2 BUFX4_10Y 0.37333333333333335
370 DFFPOSX1_52CLK *12:3 5.0
371 *12:3 *12:4 3.0333333333333337
372 *12:4 DFFPOSX1_53CLK 5.0
373 DFFPOSX1_18CLK *12:5 5.0
374 *12:5 *12:6 5.0
375 *12:6 *12:7 2.426666666666667
376 *12:7 *12:8 5.0
377 BUFX4_10Y *12:8 5.0
378 DFFPOSX1_15CLK *12:9 5.0
379 *12:9 *12:10 2.8000000000000007
380 *12:10 DFFPOSX1_18CLK 5.0
381 DFFPOSX1_12CLK *12:11 5.0
382 *12:11 *12:12 1.1666666666666667
383 *12:12 *12:13 5.0
384 *12:13 *12:6 2.0533333333333337
385 DFFPOSX1_4CLK *12:14 5.0
386 *12:14 *12:15 0.23333333333333336
387 *12:15 *12:16 5.0
388 *12:16 *12:13 4.666666666666667
389 DFFPOSX1_2CLK *12:17 5.0
390 *12:17 *12:18 1.4000000000000004
391 *12:18 DFFPOSX1_4CLK 5.0
392 DFFPOSX1_17CLK *12:19 0.18666666666666668
393 *12:19 *12:20 5.0
394 *12:20 *12:21 3.0333333333333337
395 *12:21 *12:22 5.0
396 DFFPOSX1_29CLK *12:23 5.0
397 *12:23 *12:24 1.6333333333333337
398 *12:24 DFFPOSX1_17CLK 5.0
399 DFFPOSX1_4CLK DFFPOSX1_4CLK 0.011666666666666667
*END

*D_NET *13 0.005871414999999994
*CONN
*P reset O
*I AOI21X1_19:C I
*I AOI21X1_17:C I
*I AOI21X1_16:C I
*I OAI21X1_42:A I
*I OAI21X1_33:A I
*I AOI22X1_8:A I
*I AOI22X1_7:A I
*I AOI22X1_6:A I
*I AOI22X1_5:A I
*I AOI22X1_4:A I
*I AOI22X1_3:A I
*I AOI22X1_2:A I
*I AOI22X1_1:A I
*I NAND2X1_10:A I
*I INVX8_1:A I
*CAP
342 *13:1 2.5157e-05
343 *13:2 4.0799999999999996e-05
344 *13:3 0.000240197
345 *13:4 0.00026880000000000003
346 *13:5 0.0005147570000000001
347 *13:6 6.120000000000001e-05
348 INVX8_1A 2.5157e-05
349 *13:7 2.5157e-05
350 *13:8 4.0799999999999996e-05
351 *13:9 0.000152837
352 *13:10 0.00035155699999999995
353 *13:11 0.0003672
354 *13:12 2.5157e-05
355 *13:13 0.000127157
356 *13:14 0.0004488
357 *13:15 2.5157e-05
358 *13:16 0.00043315700000000004
359 *13:17 8.159999999999999e-05
360 *13:18 2.5157e-05
361 *13:19 5.0314e-05
362 *13:20 2.5157e-05
363 *13:21 4.0799999999999996e-05
364 *13:22 2.5157e-05
365 *13:23 0.00010079999999999998
366 *13:24 2.5157e-05
367 *13:25 0.00032639999999999996
368 *13:26 2.5157e-05
369 *13:27 1.344e-05
370 *13:28 2.5157e-05
371 *13:29 2.5157e-05
372 *13:30 0.00010200000000000001
373 *13:31 2.5157e-05
374 *13:32 3.8596999999999997e-05
375 *13:33 2.5157e-05
376 *13:34 2.5157e-05
377 *13:35 2.0399999999999998e-05
378 *13:36 2.5157e-05
379 *13:37 2.016e-05
380 *13:38 2.5157e-05
381 *13:39 0.0001152
382 *13:40 5.0314e-05
383 *13:41 8.159999999999999e-05
384 *13:42 2.5157e-05
385 *13:43 0.00010079999999999998
386 *13:44 2.5157e-05
387 *13:45 2.5157e-05
388 *13:46 4.5317e-05
389 *13:47 3.36e-05
390 *13:48 0.000142698
391 *13:49 2.5157e-05
392 *13:50 2.5157e-05
393 *13:51 8.159999999999999e-05
394 *13:52 5.0314e-05
395 *13:53 1.344e-05
396 *13:54 2.5157e-05
397 *13:55 0.00040800000000000005
398 *13:56 2.5157e-05
399 *13:57 2.5157e-05
400 *13:58 2.5157e-05
401 *13:59 6.72e-06
402 *13:60 2.5157e-05
403 *13:61 0.0002208
*RES
400 AOI22X1_8A *13:1 5.0
401 *13:1 *13:2 0.46666666666666673
402 *13:2 *13:3 5.0
403 *13:3 *13:4 4.48
404 *13:4 *13:5 5.0
405 *13:5 *13:6 0.7000000000000002
406 *13:6 INVX8_1A 5.0
407 AOI22X1_6A *13:7 5.0
408 *13:7 *13:8 0.46666666666666673
409 *13:8 *13:9 5.0
410 *13:9 *13:3 5.973333333333334
411 AOI22X1_3A *13:10 5.0
412 *13:10 *13:11 4.2
413 *13:11 *13:12 5.0
414 AOI22X1_7A *13:13 5.0
415 *13:13 *13:14 5.133333333333335
416 *13:14 *13:15 5.0
417 AOI21X1_19C *13:16 5.0
418 *13:16 *13:17 0.9333333333333335
419 *13:17 *13:18 5.0
420 *13:18 *13:9 3.546666666666667
421 AOI21X1_17C *13:19 5.0
422 *13:19 *13:16 4.666666666666667
423 AOI22X1_5A *13:20 5.0
424 *13:20 *13:21 0.46666666666666673
425 *13:21 *13:22 5.0
426 *13:22 *13:23 2.8000000000000007