*SPEF "IEEE 1481-1998"
*DESIGN "spi_master"
*DATE "Sat Dec 07 15:17:37 2019"
*VENDOR "ISPD 2013 Contest"
*PROGRAM "Benchmark Parasitic Generator"
*VERSION "0.0"
*DESIGN_FLOW "PIN_CAP NONE"
*DIVIDER /
*DELIMITER :
*BUS_DELIMITER <>
*T_UNIT 1.00000 NS
*C_UNIT 1.00000 FF
*R_UNIT 1.00000 OHM
*L_UNIT 1.00000 HENRY


*NAME_MAP
*0 load
*1 data_in<3>
*2 _41_
*3 _40_
*4 _27_
*5 shift.data<3>
*6 shift.data<4>
*7 shift_en
*8 _42_
*9 data_in<4>
*10 _43_
*11 _28_
*12 shift.data<5>
*13 _44_
*14 data_in<5>
*15 _45_
*16 _29_
*17 shift.data<6>
*18 _46_
*19 data_in<6>
*20 _47_
*21 _30_
*22 _0_
*23 _48_
*24 _33_
*25 clk
*26 _36_
*27 rst
*28 _38_
*29 _49_
*30 shift.data<0>
*31 vdd
*32 _25_
*33 shift.data<1>
*34 _26_
*35 shift.data<2>
*36 MOSI
*37 _1_
*38 SCLK
*39 _2_
*40 SS
*41 _3_
*42 done
*43 ctrl.cstate<1>
*44 _5_
*45 ctrl.count<0>
*46 ctrl.count<1>
*47 ctrl.count<2>
*48 _6_
*49 ctrl.clk_en
*50 _7_
*51 _22_
*52 _8_
*53 ctrl.cstate<4>
*54 _9_
*55 send
*56 _23_<4>
*57 _4_<0>
*58 _11_
*59 _13_
*60 _15_
*61 _4_<1>
*62 _16_
*63 _17_
*64 _18_
*65 _4_<2>
*66 ctrl.cstate<3>
*67 _19_
*68 _14_
*69 ctrl.cstate<0>
*70 _20_
*71 _10_
*72 _21_
*73 _12_
*74 _24_
*75 MISO
*76 _31_
*77 data_in<0>
*78 _32_
*79 _34_
*80 data_in<1>
*81 _35_
*82 _37_
*83 data_in<2>
*84 _39_

*D_NET *0 0.0034579840000000003
*CONN
*I OAI21X1_10:A I
*I NAND2X1_12:A I
*I OAI21X1_9:A I
*I NAND2X1_11:A I
*I OAI21X1_8:A I
*I NAND2X1_10:B I
*I BUFX4_1:Y O
*I NOR2X1_1:A I
*I OAI21X1_4:A I
*I NAND2X1_4:A I
*I OAI21X1_3:A I
*I NAND2X1_3:A I
*I OAI21X1_2:A I
*I NAND2X1_2:A I
*I OAI21X1_1:A I
*I NAND2X1_1:A I
*CAP
0 *0:1 2.5157e-05
1 *0:2 2.5157e-05
2 *0:3 4.032e-05
3 *0:4 5.0314e-05
4 OAI21X1_1:A 5.7600000000000004e-05
5 *0:5 5.0314e-05
6 *0:6 0.00051
7 BUFX4_1:Y 2.5157e-05
8 *0:7 2.5157e-05
9 *0:8 7.2197e-05
10 *0:9 0.00010752
11 *0:10 2.5157e-05
12 *0:11 2.0399999999999998e-05
13 *0:12 2.5157e-05
14 *0:13 5.0314e-05
15 *0:14 0.00040800000000000005
16 *0:15 2.5157e-05
17 NAND2X1_12:A 2.8800000000000002e-05
18 *0:16 2.5157e-05
19 *0:17 7.2197e-05
20 *0:18 3.36e-05
21 *0:19 2.5157e-05
22 *0:20 0.000132677
23 *0:21 5.0314e-05
24 *0:22 0.00014279999999999997
25 *0:23 2.5157e-05
26 *0:24 2.5157e-05
27 *0:25 2.5157e-05
28 *0:26 2.688e-05
29 *0:27 2.8800000000000002e-05
30 *0:28 2.5157e-05
31 *0:29 0.00040800000000000005
32 *0:30 2.5157e-05
33 *0:31 2.5157e-05
34 *0:32 0.0004488
35 NAND2X1_11:A 2.5157e-05
36 *0:33 2.5157e-05
37 *0:34 2.0399999999999998e-05
38 *0:35 4.5317e-05
39 *0:36 2.688e-05
40 *0:37 2.5157e-05
41 *0:38 2.5157e-05
42 *0:39 0.00012240000000000002
43 *0:40 2.5157e-05
*RES
0 OAI21X1_1:A *0:1 5.0
1 *0:1 *0:2 5.0
2 *0:2 *0:3 1.12
3 *0:3 *0:4 5.0
4 NAND2X1_1:A *0:4 5.0
5 BUFX4_1:Y OAI21X1_1:A 0.37333333333333335
6 OAI21X1_2:A *0:5 5.0
7 *0:5 *0:6 5.833333333333335
8 *0:6 BUFX4_1:Y 5.0
9 OAI21X1_10:A *0:7 5.0
10 *0:7 *0:8 5.0
11 *0:8 *0:9 2.986666666666667
12 *0:9 *0:5 5.0
13 NOR2X1_1:A *0:10 5.0
14 *0:10 *0:11 0.23333333333333336
15 *0:11 *0:12 5.0
16 *0:12 *0:8 1.3066666666666669
17 NAND2X1_12:A *0:13 5.0
18 *0:13 *0:14 4.666666666666667
19 *0:14 *0:15 5.0
20 NAND2X1_2:A NAND2X1_12:A 0.18666666666666668
21 NAND2X1_3:A *0:16 5.0
22 *0:16 *0:17 5.0
23 *0:17 *0:18 0.9333333333333335
24 *0:18 *0:13 5.0
25 OAI21X1_3:A *0:19 5.0
26 *0:19 *0:20 5.0
27 *0:20 *0:17 1.3066666666666669
28 OAI21X1_4:A *0:21 5.0
29 *0:21 *0:22 1.6333333333333337
30 *0:22 *0:23 5.0
31 *0:23 *0:20 2.986666666666667
32 NAND2X1_4:A *0:24 5.0
33 *0:24 *0:25 5.0
34 *0:25 *0:26 0.7466666666666667
35 *0:26 *0:21 5.0
36 NAND2X1_11:A *0:27 0.18666666666666668
37 *0:27 *0:28 5.0
38 *0:28 *0:29 4.666666666666667
39 *0:29 *0:30 5.0
40 NAND2X1_10:B *0:31 5.0
41 *0:31 *0:32 5.133333333333335
42 *0:32 NAND2X1_11:A 5.0
43 OAI21X1_8:A *0:33 5.0
44 *0:33 *0:34 0.23333333333333336
45 *0:34 *0:35 5.0
46 *0:35 *0:36 0.7466666666666667
47 *0:36 *0:37 5.0
48 OAI21X1_9:A *0:38 5.0
49 *0:38 *0:39 1.4000000000000004
50 *0:39 *0:40 5.0
51 *0:40 *0:35 0.56
*END

*D_NET *1 0.000206529
*CONN
*P data_in<3> O
*I NAND2X1_1:B I
*CAP
44 *1:1 4.0698e-05
45 *1:2 2.5157e-05
46 *1:3 2.016e-05
47 *1:4 2.5157e-05
48 *1:5 6.120000000000001e-05
49 *1:6 2.5157e-05
50 *1:7 9e-06
*RES
52 data_in<3> 1 0.4655
53 *1:1 *1:2 5.0
54 *1:2 *1:3 0.56
55 *1:3 *1:4 5.0
56 *1:4 *1:5 0.7000000000000002
57 *1:5 *1:6 5.0
58 *1:6 *1:7 0.05833333333333334
*END

*D_NET *2 9.36e-05
*CONN
*I OAI21X1_1:C I
*I NAND2X1_1:Y O
*CAP
51 *2:1 3.6e-05
52 NAND2X1_1:Y 5.7600000000000004e-05
*RES
59 OAI21X1_1:C *2:1 0.23333333333333336
60 *2:1 NAND2X1_1:Y 0.37333333333333335
*END

*D_NET *3 0.00037671399999999994
*CONN
*I MUX2X1_8:Y O
*I OAI21X1_1:B I
*CAP
53 *3:2 2.5157e-05
54 *3:3 0.00032639999999999996
55 OAI21X1_1:B 2.5157e-05
*RES
61 *3:1 *3:2 5.0
62 *3:2 *3:3 3.733333333333334
63 *3:3 OAI21X1_1:B 5.0
*END

*D_NET *4 0.00036438799999999994
*CONN
*I DFFSR_4:D I
*I OAI21X1_1:Y O
*CAP
56 *4:1 2.5157e-05
57 *4:2 2.5157e-05
58 *4:3 0.00012096000000000001
59 *4:4 2.5157e-05
60 *4:5 0.00014279999999999997
61 OAI21X1_1:Y 2.5157e-05
*RES
64 DFFSR_4:D *4:1 5.0
65 *4:1 *4:2 5.0
66 *4:2 *4:3 3.3600000000000008
67 *4:3 *4:4 5.0
68 *4:4 *4:5 1.6333333333333337
69 *4:5 OAI21X1_1:Y 5.0
*END

*D_NET *5 0.000537625
*CONN
*I MUX2X1_8:B I
*I DFFSR_4:Q O
*I MUX2X1_1:A I
*CAP
62 *5:1 2.5157e-05
63 *5:2 0.00013872000000000003
64 *5:3 0.0001836
65 *5:4 2.5157e-05
66 MUX2X1_1:A 2.8800000000000002e-05
67 *5:5 2.5157e-05
68 *5:6 2.0399999999999998e-05
69 *5:7 2.5157e-05
70 *5:8 4.032e-05
71 *5:9 2.5157e-05
*RES
70 MUX2X1_8:B *5:1 5.0
71 *5:1 *5:2 0.18666666666666668
72 *5:2 *5:3 2.1
73 *5:3 *5:4 5.0
74 *5:4 MUX2X1_1:A 0.18666666666666668
75 DFFSR_4:Q *5:5 5.0
76 *5:5 *5:6 0.23333333333333336
77 *5:6 *5:7 5.0
78 *5:7 *5:8 1.12
79 *5:8 *5:9 5.0
80 *5:9 *5:2 1.4000000000000004
*END

*D_NET *6 0.00040538499999999997
*CONN
*I DFFSR_5:Q O
*I MUX2X1_2:A I
*I MUX2X1_1:B I
*CAP
72 *6:1 2.8800000000000002e-05
73 *6:2 2.5157e-05
74 *6:3 0.00020875699999999998
75 MUX2X1_1:B 2.5157e-05
76 *6:4 2.5157e-05
77 *6:5 2.5157e-05
78 *6:6 6.72e-05
*RES
81 DFFSR_5:Q *6:1 0.18666666666666668
82 *6:1 *6:2 5.0
83 *6:2 *6:3 2.1
84 *6:3 MUX2X1_1:B 5.0
85 MUX2X1_2:A *6:4 5.0
86 *6:4 *6:5 5.0
87 *6:5 *6:6 1.866666666666667
88 *6:6 *6:3 5.0
*END

*D_NET *7 0.0015103520000000004
*CONN
*I MUX2X1_8:S I
*I MUX2X1_7:S I
*I MUX2X1_6:S I
*I MUX2X1_5:S I
*I BUFX4_2:Y O
*I MUX2X1_4:S I
*I MUX2X1_3:S I
*I MUX2X1_2:S I
*I MUX2X1_1:S I
*CAP
79 *7:1 2.5157e-05
80 *7:2 2.0399999999999998e-05
81 *7:3 8.563700000000001e-05
82 *7:4 1.344e-05
83 *7:5 2.5157e-05
84 *7:6 0.00016319999999999998
85 MUX2X1_1:S 2.5157e-05
86 MUX2X1_7:S 2.8800000000000002e-05
87 *7:7 2.5157e-05
88 *7:8 0.00010200000000000001
89 *7:9 2.5157e-05
90 *7:10 2.5157e-05
91 *7:11 4.0799999999999996e-05
92 *7:12 8.563700000000001e-05
93 *7:13 8.735999999999999e-05
94 *7:14 2.5157e-05
95 *7:15 2.5157e-05
96 *7:16 4.0799999999999996e-05
97 *7:17 5.2037000000000003e-05
98 MUX2X1_4:S 2.8800000000000002e-05
99 *7:18 5.0314e-05
100 *7:19 0.0003672
101 *7:20 2.5157e-05
102 *7:21 2.5157e-05
103 *7:22 2.5157e-05
104 *7:23 6.72e-05
*RES
89 MUX2X1_7:S *7:1 5.0
90 *7:1 *7:2 0.23333333333333336
91 *7:2 *7:3 5.0
92 *7:3 *7:4 0.37333333333333335
93 *7:4 *7:5 5.0
94 *7:5 *7:6 1.866666666666667
95 *7:6 MUX2X1_1:S 5.0
96 MUX2X1_8:S MUX2X1_7:S 0.18666666666666668
97 BUFX4_2:Y *7:7 5.0
98 *7:7 *7:8 1.1666666666666667
99 *7:8 *7:9 5.0
100 *7:9 *7:3 1.6800000000000004
101 MUX2X1_2:S *7:10 5.0
102 *7:10 *7:11 0.46666666666666673
103 *7:11 *7:12 5.0
104 *7:12 *7:13 2.426666666666667
105 *7:13 *7:14 5.0
106 MUX2X1_4:S *7:15 5.0
107 *7:15 *7:16 0.46666666666666673
108 *7:16 *7:17 5.0
109 *7:17 *7:12 1.6800000000000004
110 MUX2X1_3:S MUX2X1_4:S 0.18666666666666668
111 MUX2X1_5:S *7:18 5.0
112 *7:18 *7:19 4.2
113 *7:19 *7:20 5.0
114 *7:20 *7:17 0.7466666666666667
115 MUX2X1_6:S *7:21 5.0
116 *7:21 *7:22 5.0
117 *7:22 *7:23 1.866666666666667
118 *7:23 *7:18 5.0
*END

*D_NET *8 0.00014790799999999998
*CONN
*I OAI21X1_2:B I
*I MUX2X1_1:Y O
*CAP
105 *8:1 2.5157e-05
106 *8:2 2.5157e-05
107 *8:3 2.688e-05
108 *8:4 2.5157e-05
109 *8:5 2.0399999999999998e-05
110 MUX2X1_1:Y 2.5157e-05
*RES
119 OAI21X1_2:B *8:1 5.0
120 *8:1 *8:2 5.0
121 *8:2 *8:3 0.7466666666666667
122 *8:3 *8:4 5.0
123 *8:4 *8:5 0.23333333333333336
124 *8:5 MUX2X1_1:Y 5.0
*END

*D_NET *9 0.000206631
*CONN
*P data_in<4> O
*I NAND2X1_2:B I
*CAP
111 *9:1 0.00010200000000000001
112 *9:2 2.5157e-05
113 *9:3 2.016e-05
114 *9:4 5.0314e-05
115 *9:6 9e-06
*RES
125 data_in<4> 1 1.1666666666666667
126 *9:1 *9:2 5.0
127 *9:2 *9:3 0.56
128 *9:3 *9:4 5.0
129 *9:5 *9:4 5.0
130 *9:5 *9:6 0.05833333333333334
*END

*D_NET *10 0.00037671399999999994
*CONN
*I OAI21X1_2:C I
*I NAND2X1_2:Y O
*CAP
116 *10:1 2.5157e-05
117 *10:2 0.00032639999999999996
118 *10:3 2.5157e-05
*RES
131 OAI21X1_2:C *10:1 5.0
132 *10:1 *10:2 3.733333333333334
133 *10:2 *10:3 5.0
*END

*D_NET *11 0.000309548
*CONN
*I DFFSR_5:D I
*I OAI21X1_2:Y O
*CAP
119 *11:1 2.5157e-05
120 *11:2 0.00012240000000000002
121 *11:3 2.5157e-05
122 *11:4 4.032e-05
123 *11:5 2.5157e-05
124 *11:6 4.0799999999999996e-05
125 *11:7 2.5157e-05
126 *11:8 5.4e-06
*RES
134 DFFSR_5:D *11:1 5.0
135 *11:1 *11:2 1.4000000000000004
136 *11:2 *11:3 5.0
137 *11:3 *11:4 1.12
138 *11:4 *11:5 5.0
139 *11:5 *11:6 0.46666666666666673
140 *11:6 *11:7 5.0
141 *11:7 *11:8 0.035
*END

*D_NET *12 0.000618702
*CONN
*I DFFSR_6:Q O
*I MUX2X1_3:A I
*I MUX2X1_2:B I
*CAP
127 *12:1 2.5157e-05
128 *12:2 4.5317e-05
129 *12:3 0.00010079999999999998
130 *12:4 5.0314e-05
131 *12:5 2.5157e-05
132 *12:6 0.00034679999999999997
133 *12:7 2.5157e-05
*RES
142 MUX2X1_3:A *12:1 5.0
143 *12:1 *12:2 5.0
144 *12:2 *12:3 2.8000000000000007
145 *12:3 *12:4 5.0
146 MUX2X1_2:B *12:4 5.0
147 DFFSR_6:Q *12:5 5.0
148 *12:5 *12:6 3.9666666666666672
149 *12:6 *12:7 5.0
150 *12:7 *12:2 0.56
*END

*D_NET *13 0.00040570199999999997
*CONN
*I OAI21X1_3:B I
*I MUX2X1_2:Y O
*CAP
134 *13:1 2.5157e-05
135 *13:2 2.5157e-05
136 *13:3 6.72e-06
137 *13:4 2.5157e-05
138 *13:5 8.64e-05
139 *13:6 2.5157e-05
140 *13:7 1.344e-05
141 *13:8 2.5157e-05
142 *13:9 0.00014279999999999997
143 *13:10 2.5157e-05
144 *13:11 5.4e-06
*RES
151 OAI21X1_3:B *13:1 5.0
152 *13:1 *13:2 5.0
153 *13:2 *13:3 0.18666666666666668
154 *13:3 *13:4 5.0
155 *13:4 *13:5 0.6
156 *13:5 *13:6 5.0
157 *13:6 *13:7 0.37333333333333335
158 *13:7 *13:8 5.0
159 *13:8 *13:9 1.6333333333333337
160 *13:9 *13:10 5.0
161 *13:10 *13:11 0.035
*END

*D_NET *14 0.00021623099999999997
*CONN
*P data_in<5> O
*I NAND2X1_3:B I
*CAP
145 *14:1 1.632e-05
146 *14:2 8.159999999999999e-05
147 *14:3 2.5157e-05
148 *14:4 1.344e-05
149 *14:5 2.5157e-05
150 *14:6 2.0399999999999998e-05
151 *14:7 2.5157e-05
152 *14:8 9e-06
*RES
162 data_in<5> 1 0.18666666666666668
163 *14:1 *14:2 0.9333333333333335
164 *14:2 *14:3 5.0
165 *14:3 *14:4 0.37333333333333335
166 *14:4 *14:5 5.0
167 *14:5 *14:6 0.23333333333333336
168 *14:6 *14:7 5.0
169 *14:7 *14:8 0.05833333333333334
*END

*D_NET *15 0.000144
*CONN
*I OAI21X1_3:C I
*I NAND2X1_3:Y O
*CAP
153 NAND2X1_3:Y 0.000144
*RES
170 OAI21X1_3:C NAND2X1_3:Y 0.9333333333333335
*END

*D_NET *16 0.000224828
*CONN
*I DFFSR_6:D I
*I OAI21X1_3:Y O
*CAP
154 *16:1 2.5157e-05
155 *16:2 4.0799999999999996e-05
156 *16:3 2.5157e-05
157 *16:4 6.72e-05
158 *16:5 5.0314e-05
159 OAI21X1_3:Y 1.62e-05
*RES
171 DFFSR_6:D *16:1 5.0
172 *16:1 *16:2 0.46666666666666673
173 *16:2 *16:3 5.0
174 *16:3 *16:4 1.866666666666667
175 *16:4 *16:5 5.0
176 *16:6 *16:5 5.0
177 *16:6 OAI21X1_3:Y 0.10500000000000002
*END

*D_NET *17 0.00039890499999999996
*CONN
*I DFFSR_7:Q O
*I MUX2X1_4:A I
*I MUX2X1_3:B I
*CAP
160 *17:1 2.8800000000000002e-05
161 *17:2 2.5157e-05
162 *17:3 0.0001836
163 MUX2X1_3:B 2.5157e-05
164 *17:4 2.5157e-05
165 *17:5 2.0399999999999998e-05
166 *17:6 2.5157e-05
167 *17:7 4.032e-05
168 *17:8 2.5157e-05
*RES
178 DFFSR_7:Q *17:1 0.18666666666666668
179 *17:1 *17:2 5.0
180 *17:2 *17:3 2.1
181 *17:3 MUX2X1_3:B 5.0
182 MUX2X1_4:A *17:4 5.0
183 *17:4 *17:5 0.23333333333333336
184 *17:5 *17:6 5.0
185 *17:6 *17:7 1.12
186 *17:7 *17:8 5.0
*END

*D_NET *18 0.00019311399999999995
*CONN
*I OAI21X1_4:B I
*I MUX2X1_3:Y O
*CAP
169 *18:1 2.5157e-05
170 *18:2 0.00014279999999999997
171 *18:3 2.5157e-05
*RES
187 OAI21X1_4:B *18:1 5.0
188 *18:1 *18:2 1.6333333333333337
189 *18:2 *18:3 5.0
*END

*D_NET *19 6.3712e-05
*CONN
*P data_in<6> O
*I NAND2X1_4:B I
*CAP
172 *19:1 1.3398000000000001e-05
173 *19:2 5.0314e-05
*RES
190 data_in<6> 1 0.3721666666666667
191 *19:1 *19:2 5.0
192 NAND2X1_4:B *19:2 5.0
*END

*D_NET *20 5.7600000000000004e-05
*CONN
*I OAI21X1_4:C I
*I NAND2X1_4:Y O
*CAP
174 NAND2X1_4:Y 5.7600000000000004e-05
*RES
193 OAI21X1_4:C NAND2X1_4:Y 0.37333333333333335
*END

*D_NET *21 0.000248948
*CONN
*I DFFSR_7:D I
*I OAI21X1_4:Y O
*CAP
175 *21:1 2.5157e-05
176 *21:2 2.0399999999999998e-05
177 *21:3 2.5157e-05
178 *21:4 0.00010752
179 *21:5 2.5157e-05
180 *21:6 2.0399999999999998e-05
181 OAI21X1_4:Y 2.5157e-05
*RES
194 DFFSR_7:D *21:1 5.0
195 *21:1 *21:2 0.23333333333333336
196 *21:2 *21:3 5.0
197 *21:3 *21:4 2.986666666666667
198 *21:4 *21:5 5.0
199 *21:5 *21:6 0.23333333333333336
200 *21:6 OAI21X1_4:Y 5.0
*END

*D_NET *22 0.000347502
*CONN
*I BUFX2_1:A I
*I DFFSR_8:Q O
*I MUX2X1_4:B I
*CAP
182 *22:1 2.5157e-05
183 *22:2 2.0399999999999998e-05
184 *22:3 2.5157e-05
185 *22:4 5.376e-05
186 *22:5 2.5157e-05
187 *22:6 2.0399999999999998e-05
188 MUX2X1_4:B 2.5157e-05
189 *22:7 2.5157e-05
190 *22:8 0.00010200000000000001
191 *22:9 2.5157e-05
*RES
201 BUFX2_1:A *22:1 5.0
202 *22:1 *22:2 0.23333333333333336
203 *22:2 *22:3 5.0
204 *22:3 *22:4 1.4933333333333334
205 *22:4 *22:5 5.0
206 *22:5 *22:6 0.23333333333333336
207 *22:6 MUX2X1_4:B 5.0
208 DFFSR_8:Q *22:7 5.0
209 *22:7 *22:8 1.1666666666666667
210 *22:8 *22:9 5.0
*END

*D_NET *23 9.36e-05
*CONN
*I NOR2X1_1:B I
*I MUX2X1_4:Y O
*CAP
192 *23:1 3.6e-05
193 MUX2X1_4:Y 5.7600000000000004e-05
*RES
211 NOR2X1_1:B *23:1 0.23333333333333336
212 *23:1 MUX2X1_4:Y 0.37333333333333335
*END

*D_NET *24 0.000152314
*CONN
*I DFFSR_8:D I
*I NOR2X1_1:Y O
*CAP
194 *24:1 2.5157e-05
195 *24:2 0.00010200000000000001
196 NOR2X1_1:Y 2.5157e-05
*RES
213 DFFSR_8:D *24:1 5.0
214 *24:1 *24:2 1.1666666666666667
215 *24:2 NOR2X1_1:Y 5.0
*END

*D_NET *25 0.0016148900000000003
*CONN
*P clk O
*I DFFSR_13:CLK I
*I DFFSR_12:CLK I
*I DFFSR_11:CLK I
*I DFFSR_10:CLK I
*I DFFSR_9:CLK I
*I INVX1_6:A I
*I INVX2_1:A I
*CAP
197 *25:1 2.5157e-05
198 *25:2 2.5157e-05
199 *25:3 0.00012096
200 *25:4 2.5157e-05
201 *25:5 0.00012240000000000002
202 INVX2_1:A 2.5157e-05
203 *25:6 0.000127157
204 *25:7 2.5157e-05
205 *25:8 2.5157e-05
206 *25:9 2.5157e-05
207 *25:10 8.064e-05
208 *25:11 2.5157e-05
209 *25:12 0.000127157
210 *25:13 0.00030599999999999996
211 *25:14 2.5157e-05
212 *25:15 2.5157e-05
213 *25:16 2.5157e-05
214 *25:17 0.00019487999999999998
215 *25:18 2.5157e-05
216 *25:19 0.00020865499999999997
217 *25:20 2.5157e-05
*RES
216 DFFSR_11:CLK *25:1 5.0
217 *25:1 *25:2 5.0
218 *25:2 *25:3 1.3066666666666669
219 *25:3 *25:4 5.0
220 *25:4 *25:5 1.4000000000000004
221 *25:5 INVX2_1:A 5.0
222 INVX1_6:A *25:6 5.0
223 *25:6 *25:7 5.0
224 *25:7 *25:3 2.0533333333333337
225 DFFSR_13:CLK *25:8 5.0
226 *25:8 *25:9 5.0
227 *25:9 *25:10 2.24
228 *25:10 *25:11 5.0
229 *25:11 *25:6 1.1666666666666667
230 DFFSR_10:CLK *25:12 5.0
231 *25:12 *25:13 3.5000000000000004
232 *25:13 *25:14 5.0
233 DFFSR_9:CLK *25:15 5.0
234 *25:15 *25:16 5.0
235 *25:16 *25:17 1.12
236 *25:17 *25:18 5.0
237 *25:18 *25:12 1.1666666666666667
238 DFFSR_12:CLK *25:19 5.0
239 *25:19 *25:20 5.0
240 *25:20 *25:17 4.293333333333334
241 clk 19 2.0988333333333333
*END

*D_NET *26 0.00272434
*CONN
*I DFFSR_8:CLK I
*I DFFSR_7:CLK I
*I DFFSR_6:CLK I
*I DFFSR_5:CLK I
*I DFFSR_4:CLK I
*I DFFSR_3:CLK I
*I DFFSR_2:CLK I
*I DFFSR_1:CLK I
*I INVX2_1:Y O
*CAP
218 *26:1 0.00020875699999999998
219 *26:2 7.8917e-05
220 *26:3 7.392e-05
221 *26:4 5.0314e-05
222 *26:5 5.0314e-05
223 *26:6 0.00012240000000000002
224 *26:7 1.632e-05
225 *26:8 2.5157e-05
226 *26:9 0.000105797
227 *26:10 0.00014784
228 *26:11 2.5157e-05
229 *26:12 0.00018360000000000002
230 *26:13 2.5157e-05
231 *26:14 0.000290357
232 *26:15 0.0002244
233 *26:16 2.5157e-05
234 *26:17 2.688e-05
235 *26:18 2.5157e-05
236 *26:19 2.5157e-05
237 *26:20 0.00040800000000000005
238 *26:21 2.5157e-05
239 *26:22 2.5157e-05
240 *26:23 0.00014279999999999997
241 *26:24 2.5157e-05
242 *26:25 4.704e-05
243 *26:26 2.5157e-05
244 *26:27 2.5157e-05
245 *26:28 0.00024480000000000004
246 *26:29 2.5157e-05
*RES
242 DFFSR_3:CLK *26:1 5.0
243 *26:1 *26:2 5.0
244 *26:2 *26:3 2.0533333333333337
245 *26:3 *26:4 5.0
246 INVX2_1:Y *26:4 5.0
247 DFFSR_4:CLK *26:5 5.0
248 *26:5 *26:6 1.4000000000000004
249 *26:6 *26:7 0.18666666666666668
250 *26:7 *26:1 2.1
251 DFFSR_2:CLK *26:8 5.0
252 *26:8 *26:9 5.0
253 *26:9 *26:10 4.106666666666667
254 *26:10 *26:5 5.0
255 DFFSR_1:CLK *26:11 5.0
256 *26:11 *26:12 1.1666666666666667
257 *26:12 *26:13 5.0
258 *26:13 *26:9 2.24
259 DFFSR_8:CLK *26:14 5.0
260 *26:14 *26:15 2.5666666666666673
261 *26:15 *26:16 5.0
262 *26:16 *26:17 0.7466666666666667
263 *26:17 *26:18 5.0
264 *26:18 *26:12 0.9333333333333335
265 DFFSR_5:CLK *26:19 5.0
266 *26:19 *26:20 4.666666666666667
267 *26:20 *26:21 5.0
268 *26:21 *26:2 1.4933333333333334
269 DFFSR_7:CLK *26:22 5.0
270 *26:22 *26:23 1.6333333333333337
271 *26:23 *26:24 5.0
272 *26:24 *26:25 0.7466666666666667
273 *26:25 *26:26 5.0
274 *26:26 *26:14 3.0333333333333337
275 DFFSR_6:CLK *26:27 5.0
276 *26:27 *26:28 2.8000000000000007
277 *26:28 *26:29 5.0
278 *26:29 *26:25 0.56
*END

*D_NET *27 0.00028091099999999995
*CONN
*P rst O
*I INVX4_2:A I
*I INVX4_1:A I
*CAP
247 INVX4_1:A 5.3957e-05
248 *27:1 8.159999999999999e-05
249 *27:2 2.5157e-05
250 *27:3 1.344e-05
251 *27:4 2.5157e-05
252 *27:5 8.159999999999999e-05
*RES
279 INVX4_2:A INVX4_1:A 0.18666666666666668
280 rst 1 0.9333333333333335
281 *27:1 *27:2 5.0
282 *27:2 *27:3 0.37333333333333335
283 *27:3 *27:4 5.0
284 *27:4 *27:5 0.9333333333333335
285 *27:5 INVX4_1:A 5.0
*END

*D_NET *28 0.002188017
*CONN
*I DFFSR_8:R I
*I DFFSR_7:R I
*I DFFSR_6:R I
*I DFFSR_5:R I
*I DFFSR_4:R I
*I DFFSR_3:R I
*I DFFSR_2:R I
*I DFFSR_1:R I
*I INVX4_1:Y O
*CAP
253 *28:1 5.0314e-05
254 *28:2 0.00016319999999999998
255 *28:3 2.5157e-05
256 INVX4_1:Y 2.8800000000000002e-05
257 *28:4 0.00024955699999999997
258 *28:5 2.5157e-05
259 *28:6 8.064e-05
260 *28:7 2.5157e-05
261 *28:8 4.0799999999999996e-05
262 *28:9 2.5157e-05
263 *28:10 4.704e-05
264 *28:11 2.5157e-05
265 *28:12 0.000249557
266 *28:13 0.00032639999999999996
267 *28:14 2.5157e-05
268 *28:15 3.36e-05
269 *28:16 2.5157e-05
270 *28:17 0.00020875699999999998
271 *28:18 2.5157e-05
272 *28:19 2.688e-05
273 *28:20 2.5157e-05
274 *28:21 2.5157e-05
275 *28:22 2.5157e-05
276 *28:23 2.5157e-05
277 *28:24 5.376e-05
278 *28:25 5.0314e-05
279 DFFSR_2:R 1.8000000000000001e-06
280 *28:26 2.5157e-05
281 *28:27 0.0002244
282 DFFSR_4:R 2.5157e-05
*RES
286 DFFSR_5:R *28:1 5.0
287 *28:1 *28:2 1.866666666666667
288 *28:2 *28:3 5.0
289 *28:3 INVX4_1:Y 0.18666666666666668
290 DFFSR_7:R *28:4 5.0
291 *28:4 *28:5 5.0
292 *28:5 *28:6 2.24
293 *28:6 *28:1 5.0
294 DFFSR_6:R *28:7 5.0
295 *28:7 *28:8 0.46666666666666673
296 *28:8 *28:9 5.0
297 *28:9 *28:10 1.3066666666666669
298 *28:10 *28:11 5.0
299 *28:11 *28:4 1.6333333333333337
300 DFFSR_8:R *28:12 5.0
301 *28:12 *28:13 3.733333333333334
302 *28:13 *28:14 5.0
303 *28:14 *28:15 0.9333333333333335
304 *28:15 *28:16 5.0
305 *28:16 *28:4 0.9333333333333335
306 DFFSR_2:R *28:17 5.0
307 *28:17 *28:18 5.0
308 *28:18 *28:19 0.7466666666666667
309 *28:19 *28:20 5.0
310 *28:20 *28:12 2.5666666666666673
311 DFFSR_1:R *28:21 5.0
312 *28:21 *28:17 2.1
313 DFFSR_4:R *28:22 5.0
314 *28:22 *28:23 5.0
315 *28:23 *28:24 1.4933333333333334
316 *28:24 *28:25 5.0
317 DFFSR_2:R *28:25 5.0
318 DFFSR_2:R DFFSR_2:R 0.011666666666666667
319 DFFSR_3:R *28:26 5.0
320 *28:26 *28:27 2.5666666666666673
321 *28:27 DFFSR_4:R 5.0
*END

*D_NET *29 0.000228548
*CONN
*I OAI21X1_8:Y O
*I DFFSR_1:D I
*CAP
283 *29:1 2.5157e-05
284 *29:2 2.5157e-05
285 *29:3 0.00010752
286 *29:4 2.5157e-05
287 *29:5 2.0399999999999998e-05
288 DFFSR_1:D 2.5157e-05
*RES
322 OAI21X1_8:Y *29:1 5.0
323 *29:1 *29:2 5.0
324 *29:2 *29:3 2.986666666666667
325 *29:3 *29:4 5.0
326 *29:4 *29:5 0.23333333333333336
327 *29:5 DFFSR_1:D 5.0
*END

*D_NET *30 0.00042238199999999995
*CONN
*I MUX2X1_6:A I
*I MUX2X1_5:B I
*I DFFSR_1:Q O
*CAP
289 *30:1 2.5157e-05
290 *30:2 0.00010200000000000001
291 *30:3 2.5157e-05
292 *30:4 4.704e-05
293 *30:5 2.5157e-05
294 *30:6 2.0399999999999998e-05
295 DFFSR_1:Q 2.5157e-05
296 *30:7 2.5157e-05
297 *30:8 0.00010200000000000001
298 *30:9 2.5157e-05
*RES
328 MUX2X1_6:A *30:1 5.0
329 *30:1 *30:2 1.1666666666666667
330 *30:2 *30:3 5.0
331 *30:3 *30:4 0.56
332 *30:4 *30:5 5.0
333 *30:5 *30:6 0.23333333333333336
334 *30:6 DFFSR_1:Q 5.0
335 MUX2X1_5:B *30:7 5.0
336 *30:7 *30:8 1.1666666666666667
337 *30:8 *30:9 5.0
338 *30:9 *30:4 0.7466666666666667
*END

*D_NET *31 0.0017760640000000006
*CONN
*I DFFSR_16:R I
*I DFFSR_15:R I
*I DFFSR_14:R I
*I DFFSR_13:S I
*I DFFSR_12:S I
*I DFFSR_11:S I
*I DFFSR_10:S I
*I DFFSR_9:R I
*I DFFSR_8:S I
*I DFFSR_7:S I
*I DFFSR_6:S I
*I DFFSR_5:S I
*I DFFSR_4:S I
*I DFFSR_3:S I
*I DFFSR_2:S I
*I DFFSR_1:S I
*CAP
299 *31:2 2.5157e-05
300 *31:3 6.120000000000001e-05
301 *31:4 4.08e-06
302 DFFSR_1:S 2.5157e-05
303 *31:6 2.5157e-05
304 *31:7 6.120000000000001e-05
305 *31:8 4.08e-06
306 DFFSR_2:S 2.5157e-05
307 *31:10 2.5157e-05
308 *31:11 6.120000000000001e-05
309 *31:12 4.08e-06
310 DFFSR_3:S 2.5157e-05
311 *31:14 2.5157e-05
312 *31:15 6.120000000000001e-05
313 DFFSR_4:S 2.5157e-05
314 *31:17 2.5157e-05
315 *31:18 6.120000000000001e-05
316 *31:19 4.08e-06
317 DFFSR_5:S 2.5157e-05
318 *31:21 2.5157e-05
319 *31:22 6.120000000000001e-05
320 DFFSR_6:S 2.5157e-05
321 *31:24 2.5157e-05
322 *31:25 6.120000000000001e-05
323 *31:26 4.08e-06
324 DFFSR_7:S 2.5157e-05
325 *31:28 2.5157e-05
326 *31:29 6.120000000000001e-05
327 *31:30 4.08e-06
328 DFFSR_8:S 2.5157e-05
329 *31:32 2.5157e-05
330 *31:34 6.120000000000001e-05
331 DFFSR_9:R 2.5157e-05
332 *31:36 2.5157e-05
333 *31:37 6.120000000000001e-05
334 DFFSR_10:S 2.5157e-05
335 *31:39 2.5157e-05
336 *31:40 6.120000000000001e-05
337 DFFSR_11:S 2.5157e-05
338 *31:42 2.5157e-05
339 *31:44 4.0799999999999996e-05
340 *31:45 4.08e-06
341 DFFSR_12:S 2.5157e-05
342 *31:47 2.5157e-05
343 *31:49 4.0799999999999996e-05
344 *31:50 4.08e-06
345 DFFSR_13:S 2.5157e-05
346 *31:52 2.5157e-05
347 *31:54 6.120000000000001e-05
348 DFFSR_14:R 2.5157e-05
349 *31:56 2.5157e-05
350 *31:57 6.120000000000001e-05
351 DFFSR_15:R 2.5157e-05
352 *31:59 2.5157e-05
353 *31:61 6.120000000000001e-05
354 DFFSR_16:R 2.5157e-05
*RES
339 *31:1 *31:2 5.0
340 *31:2 *31:3 0.7000000000000002
341 *31:3 *31:4 0.04666666666666667
342 *31:4 DFFSR_1:S 5.0
343 *31:5 *31:6 5.0
344 *31:6 *31:7 0.7000000000000002
345 *31:7 *31:8 0.04666666666666667
346 *31:8 DFFSR_2:S 5.0
347 *31:9 *31:10 5.0
348 *31:10 *31:11 0.7000000000000002
349 *31:11 *31:12 0.04666666666666667
350 *31:12 DFFSR_3:S 5.0
351 *31:13 *31:14 5.0
352 *31:14 *31:15 0.7000000000000002
353 *31:15 DFFSR_4:S 5.0
354 *31:16 *31:17 5.0
355 *31:17 *31:18 0.7000000000000002
356 *31:18 *31:19 0.04666666666666667
357 *31:19 DFFSR_5:S 5.0
358 *31:20 *31:21 5.0
359 *31:21 *31:22 0.7000000000000002
360 *31:22 DFFSR_6:S 5.0
361 *31:23 *31:24 5.0
362 *31:24 *31:25 0.7000000000000002
363 *31:25 *31:26 0.04666666666666667
364 *31:26 DFFSR_7:S 5.0
365 *31:27 *31:28 5.0
366 *31:28 *31:29 0.7000000000000002
367 *31:29 *31:30 0.04666666666666667
368 *31:30 DFFSR_8:S 5.0
369 *31:31 *31:32 5.0
370 *31:33 *31:34 0.7000000000000002
371 *31:34 DFFSR_9:R 5.0
372 *31:35 *31:36 5.0
373 *31:36 *31:37 0.7000000000000002
374 *31:37 DFFSR_10:S 5.0
375 *31:38 *31:39 5.0
376 *31:39 *31:40 0.7000000000000002
377 *31:40 DFFSR_11:S 5.0
378 *31:41 *31:42 5.0
379 *31:43 *31:44 0.46666666666666673
380 *31:44 *31:45 0.04666666666666667
381 *31:45 DFFSR_12:S 5.0
382 *31:46 *31:47 5.0
383 *31:48 *31:49 0.46666666666666673
384 *31:49 *31:50 0.04666666666666667
385 *31:50 DFFSR_13:S 5.0
386 *31:51 *31:52 5.0
387 *31:53 *31:54 0.7000000000000002
388 *31:54 DFFSR_14:R 5.0
389 *31:55 *31:56 5.0
390 *31:56 *31:57 0.7000000000000002
391 *31:57 DFFSR_15:R 5.0
392 *31:58 *31:59 5.0
393 *31:60 *31:61 0.7000000000000002
394 *31:61 DFFSR_16:R 5.0
*END

*D_NET *32 0.000268628
*CONN
*I OAI21X1_9:Y O
*I DFFSR_2:D I
*CAP
355 *32:1 2.5157e-05
356 *32:2 2.5157e-05
357 *32:3 0.000168
358 *32:4 5.0314e-05
*RES
395 OAI21X1_9:Y *32:1 5.0
396 *32:1 *32:2 5.0
397 *32:2 *32:3 4.666666666666667
398 *32:3 *32:4 5.0
399 DFFSR_2:D *32:4 5.0
*END

*D_NET *33 0.0005553759999999999
*CONN
*I MUX2X1_7:A I
*I MUX2X1_6:B I
*I DFFSR_2:Q O
*CAP
359 *33:1 2.5157e-05
360 *33:2 2.0399999999999998e-05
361 *33:3 2.5157e-05
362 *33:4 1.344e-05
363 *33:5 5.0314e-05
364 DFFSR_2:Q 0.00011700000000000001
365 *33:7 2.5157e-05
366 *33:8 0.00014279999999999997
367 *33:9 2.5157e-05
368 *33:10 6.0480000000000004e-05
369 *33:11 5.0314e-05
*RES
400 MUX2X1_6:B *33:1 5.0
401 *33:1 *33:2 0.23333333333333336
402 *33:2 *33:3 5.0
403 *33:3 *33:4 0.37333333333333335
404 *33:4 *33:5 5.0
405 *33:6 *33:5 5.0
406 *33:6 DFFSR_2:Q 0.7466666666666667
407 DFFSR_2:Q DFFSR_2:Q 0.011666666666666667
408 MUX2X1_7:A *33:7 5.0
409 *33:7 *33:8 1.6333333333333337
410 *33:8 *33:9 5.0
411 *33:9 *33:10 1.6800000000000004
412 *33:10 *33:11 5.0
413 DFFSR_2:Q *33:11 5.0
*END

*D_NET *34 0.00037734799999999995
*CONN
*I OAI21X1_10:Y O
*I DFFSR_3:D I
*CAP
370 *34:1 2.5157e-05
371 *34:2 2.0399999999999998e-05
372 *34:3 2.5157e-05
373 *34:4 0.00017471999999999998
374 *34:5 2.5157e-05
375 *34:6 8.159999999999999e-05
376 DFFSR_3:D 2.5157e-05
*RES
414 OAI21X1_10:Y *34:1 5.0
415 *34:1 *34:2 0.23333333333333336
416 *34:2 *34:3 5.0
417 *34:3 *34:4 4.853333333333334
418 *34:4 *34:5 5.0
419 *34:5 *34:6 0.9333333333333335
420 *34:6 DFFSR_3:D 5.0
*END

*D_NET *35 0.00022554799999999998
*CONN
*I MUX2X1_8:A I
*I MUX2X1_7:B I
*I DFFSR_3:Q O
*CAP
377 DFFSR_3:Q 8.459999999999998e-05
378 *35:1 2.5157e-05
379 *35:2 2.5157e-05
380 *35:3 4.032e-05
381 *35:4 5.0314e-05
*RES
421 MUX2X1_8:A DFFSR_3:Q 0.5483333333333335
422 MUX2X1_7:B *35:1 5.0
423 *35:1 *35:2 5.0
424 *35:2 *35:3 1.12
425 *35:3 *35:4 5.0
426 MUX2X1_8:A *35:4 5.0
*END

*D_NET *36 8.4112e-05
*CONN
*P MOSI O
*I BUFX2_1:Y O
*CAP
382 *36:1 1.3398000000000001e-05
383 *36:2 2.5157e-05
384 *36:3 2.0399999999999998e-05
385 BUFX2_1:Y 2.5157e-05
*RES
427 MOSI 1 0.3721666666666667
428 *36:1 *36:2 5.0
429 *36:2 *36:3 0.23333333333333336
430 *36:3 BUFX2_1:Y 5.0
*END

*D_NET *37 0.00010743399999999999
*CONN
*I NOR2X1_4:Y O
*I BUFX2_2:A I
*CAP
386 *37:2 2.5157e-05
387 *37:3 1.632e-05
388 *37:4 4.0799999999999996e-05
389 BUFX2_2:A 2.5157e-05
*RES
431 *37:1 *37:2 5.0
432 *37:2 *37:3 0.18666666666666668
433 *37:3 *37:4 0.46666666666666673
434 *37:4 BUFX2_2:A 5.0
*END

*D_NET *38 9.0634e-05
*CONN
*P SCLK O
*I BUFX2_2:Y O
*CAP
390 *38:1 4.032e-05
391 *38:2 5.0314e-05
*RES
435 SCLK 1 1.12
436 *38:1 *38:2 5.0
437 BUFX2_2:Y *38:2 5.0
*END

*D_NET *39 0.000582702
*CONN
*I OAI21X1_6:Y O
*I BUFX2_3:A I
*CAP
392 *39:1 2.5157e-05
393 *39:2 1.632e-05
394 *39:3 2.5157e-05
395 *39:4 6.72e-06
396 *39:5 2.5157e-05
397 *39:6 0.0001248
398 *39:7 2.5157e-05
399 *39:8 0.00014112
400 *39:9 2.5157e-05
401 *39:10 0.00014279999999999997
402 BUFX2_3:A 2.5157e-05
*RES
438 OAI21X1_6:Y *39:1 5.0
439 *39:1 *39:2 0.18666666666666668
440 *39:2 *39:3 5.0
441 *39:3 *39:4 0.18666666666666668
442 *39:4 *39:5 5.0
443 *39:5 *39:6 0.8666666666666667
444 *39:6 *39:7 5.0
445 *39:7 *39:8 3.9200000000000004
446 *39:8 *39:9 5.0
447 *39:9 *39:10 1.6333333333333337
448 *39:10 BUFX2_3:A 5.0
*END

*D_NET *40 0.00016383400000000002
*CONN
*P SS O
*I BUFX2_3:Y O
*CAP
403 *40:1 6.72e-06
404 *40:2 2.5157e-05
405 *40:3 2.0399999999999998e-05
406 *40:4 2.5157e-05
407 BUFX2_3:Y 8.64e-05
*RES
449 SS 1 0.18666666666666668
450 *40:1 *40:2 5.0
451 *40:2 *40:3 0.23333333333333336
452 *40:3 *40:4 5.0
453 *40:4 BUFX2_3:Y 0.56
*END

*D_NET *41 0.00044718799999999995
*CONN
*I BUFX2_5:Y O
*I BUFX2_4:A I
*CAP
408 *41:1 2.5157e-05
409 *41:2 2.5157e-05
410 *41:3 2.016e-05
411 *41:4 2.5157e-05
412 *41:5 0.00032639999999999996
413 BUFX2_4:A 2.5157e-05
*RES
454 BUFX2_5:Y *41:1 5.0
455 *41:1 *41:2 5.0
456 *41:2 *41:3 0.56
457 *41:3 *41:4 5.0
458 *41:4 *41:5 3.733333333333334
459 *41:5 BUFX2_4:A 5.0
*END

*D_NET *42 0.00013503400000000002
*CONN
*P done O
*I BUFX2_4:Y O
*CAP
414 *42:1 6.72e-06
415 *42:2 2.5157e-05
416 *42:3 2.0399999999999998e-05
417 *42:4 2.5157e-05
418 BUFX2_4:Y 5.7600000000000004e-05
*RES
460 done 1 0.18666666666666668
461 *42:1 *42:2 5.0
462 *42:2 *42:3 0.23333333333333336
463 *42:3 *42:4 5.0
464 *42:4 BUFX2_4:Y 0.37333333333333335
*END

*D_NET *43 0.00044886799999999994
*CONN
*I DFFSR_10:Q O
*I OAI21X1_6:A I
*I INVX1_1:A I
*CAP
419 *43:1 2.8800000000000002e-05
420 *43:2 3.6e-05
421 INVX1_1:A 8.64e-05
422 *43:3 2.5157e-05
423 *43:4 2.5157e-05
424 *43:5 1.344e-05
425 *43:6 2.5157e-05
426 *43:7 0.0001836
427 *43:8 2.5157e-05
*RES
465 OAI21X1_6:A *43:1 0.18666666666666668
466 *43:1 *43:2 0.23333333333333336
467 *43:2 INVX1_1:A 0.56
468 DFFSR_10:Q *43:3 5.0
469 *43:3 *43:4 5.0
470 *43:4 *43:5 0.37333333333333335
471 *43:5 *43:6 5.0
472 *43:6 *43:7 2.1
473 *43:7 *43:8 5.0
*END

*D_NET *44 2.8800000000000002e-05
*CONN
*I NAND2X1_6:A I
*I INVX1_1:Y O
*CAP
428 INVX1_1:Y 2.8800000000000002e-05
*RES
474 NAND2X1_6:A INVX1_1:Y 0.18666666666666668
*END

*D_NET *45 0.0009524900000000001
*CONN
*I DFFSR_14:Q O
*I NAND3X1_2:A I
*I NOR2X1_2:A I
*I NAND2X1_8:A I
*I NAND2X1_7:B I
*I NAND3X1_1:A I
*CAP
429 *45:1 2.5157e-05
430 *45:2 0.00022439999999999998
431 *45:3 2.5157e-05
432 NAND3X1_1:A 5.7600000000000004e-05
433 *45:4 2.8800000000000002e-05
434 *45:5 2.5157e-05
435 *45:6 9.2357e-05
436 *45:7 5.376e-05
437 *45:8 6.595699999999999e-05
438 *45:9 2.5157e-05
439 *45:10 2.0399999999999998e-05
440 *45:11 2.5157e-05
441 *45:12 2.5157e-05
442 *45:13 6.120000000000001e-05
443 *45:14 2.5157e-05
444 *45:15 8.735999999999999e-05
445 *45:16 2.5157e-05
446 DFFSR_14:Q 5.940000000000001e-05
*RES
475 NAND3X1_2:A *45:1 5.0
476 *45:1 *45:2 2.1