*SPEF "IEEE 1481-1998"
*DESIGN "rle_enc"
*DATE "Sun Dec 15 18:39:45 2019"
*VENDOR "ISPD 2013 Contest"
*PROGRAM "Benchmark Parasitic Generator"
*VERSION "0.0"
*DESIGN_FLOW "PIN_CAP NONE"
*DIVIDER /
*DELIMITER :
*BUS_DELIMITER []
*T_UNIT 1.00000 NS
*C_UNIT 1.00000 PF
*R_UNIT 1.00000 OHM
*L_UNIT 1.00000 HENRY


*NAME_MAP
*0 state_7_
*1 state_7_bF_buf3
*2 state_7_bF_buf2
*3 state_7_bF_buf1
*4 state_7_bF_buf0
*5 clk
*6 clk_bF_buf5
*7 clk_bF_buf4
*8 clk_bF_buf3
*9 clk_bF_buf2
*10 clk_bF_buf1
*11 clk_bF_buf0
*12 rst
*13 _7_
*14 state_8_
*15 _8_
*16 end_of_stream
*17 _9_
*18 _206__0_
*19 state_5_
*20 _10_
*21 recv_ready
*22 _11_
*23 _207__3_
*24 _12_
*25 _207__2_
*26 _13_
*27 _207__1_
*28 _207__0_
*29 _14_
*30 _15_
*31 _207__7_
*32 _16_
*33 _207__6_
*34 _17_
*35 _207__5_
*36 _207__4_
*37 _18_
*38 _19_
*39 _20_
*40 _207__16_
*41 _21_
*42 _207__19_
*43 _22_
*44 _207__18_
*45 _23_
*46 _24_
*47 _207__20_
*48 _25_
*49 _207__17_
*50 _26_
*51 _207__22_
*52 _207__21_
*53 _27_
*54 _28_
*55 _29_
*56 _207__9_
*57 _30_
*58 _207__8_
*59 _31_
*60 _207__11_
*61 _207__10_
*62 _32_
*63 _33_
*64 _207__15_
*65 _34_
*66 _207__14_
*67 _35_
*68 _207__13_
*69 _207__12_
*70 _36_
*71 _37_
*72 _38_
*73 _39_
*74 _40_
*75 shift_count_1_
*76 shift_count_0_
*77 shift_count_2_
*78 _41_
*79 shift_count_3_
*80 _42_
*81 state_2_
*82 _43_
*83 new_bitstream
*84 _44_
*85 _45_
*86 state_0_
*87 _46_
*88 _206__5_
*89 _47_
*90 _48_
*91 _49_
*92 state_6_
*93 _50_
*94 send_ready
*95 _51_
*96 _52_
*97 _206__6_
*98 _53_
*99 state_1_
*100 _54_
*101 _206__7_
*102 _55_
*103 _56_
*104 _57_
*105 _4__0_
*106 _58_
*107 _59_
*108 _60_
*109 _61_
*110 _62_
*111 _63_
*112 _64_
*113 _4__1_
*114 _4__2_
*115 _65_
*116 _66_
*117 _67_
*118 _4__3_
*119 shift_buf_0_
*120 _68_
*121 _69_
*122 _70_
*123 _71_
*124 _72_
*125 _73_
*126 in_data[0]
*127 shift_buf_1_
*128 _74_
*129 _3__0_
*130 _75_
*131 in_data[1]
*132 _76_
*133 shift_buf_2_
*134 _77_
*135 _3__1_
*136 _78_
*137 in_data[2]
*138 _79_
*139 shift_buf_3_
*140 _80_
*141 _3__2_
*142 _81_
*143 in_data[3]
*144 _82_
*145 shift_buf_4_
*146 _83_
*147 _3__3_
*148 _84_
*149 in_data[4]
*150 _85_
*151 shift_buf_5_
*152 _86_
*153 _3__4_
*154 _87_
*155 in_data[5]
*156 _88_
*157 shift_buf_6_
*158 _89_
*159 _3__5_
*160 _90_
*161 in_data[6]
*162 _91_
*163 shift_buf_7_
*164 _92_
*165 _3__6_
*166 _93_
*167 in_data[7]
*168 _94_
*169 _3__7_
*170 value_type
*171 _95_
*172 _96_
*173 _97_
*174 _98_
*175 _99_
*176 _1_
*177 _100_
*178 _101_
*179 _5_
*180 _208_
*181 _102_
*182 state_3_
*183 _2_
*184 _209_
*185 _103_
*186 state_4_
*187 _6_
*188 _104_
*189 _105_
*190 _106_
*191 _107_
*192 _108_
*193 _109_
*194 _110_
*195 _111_
*196 _0__0_
*197 _112_
*198 _113_
*199 _114_
*200 _0__1_
*201 _115_
*202 _116_
*203 _117_
*204 _0__2_
*205 _118_
*206 _119_
*207 _120_
*208 _121_
*209 _0__3_
*210 _122_
*211 _123_
*212 _0__4_
*213 _124_
*214 _125_
*215 _126_
*216 _127_
*217 _128_
*218 _129_
*219 _130_
*220 _0__5_
*221 _131_
*222 _132_
*223 _133_
*224 _134_
*225 _0__6_
*226 _135_
*227 _136_
*228 _0__7_
*229 _137_
*230 _138_
*231 _139_
*232 _140_
*233 _141_
*234 _142_
*235 _0__8_
*236 _143_
*237 _144_
*238 _145_
*239 _0__9_
*240 _146_
*241 _147_
*242 _148_
*243 _149_
*244 _0__10_
*245 _150_
*246 _151_
*247 _0__11_
*248 _152_
*249 _153_
*250 _154_
*251 _155_
*252 _156_
*253 _157_
*254 _0__12_
*255 _158_
*256 _159_
*257 _160_
*258 _161_
*259 _162_
*260 _163_
*261 _164_
*262 _0__13_
*263 _165_
*264 _166_
*265 _0__14_
*266 _167_
*267 _168_
*268 _169_
*269 _170_
*270 _171_
*271 _0__15_
*272 _172_
*273 _173_
*274 _174_
*275 _0__16_
*276 _175_
*277 _176_
*278 _177_
*279 _178_
*280 _179_
*281 _180_
*282 _0__17_
*283 _181_
*284 _182_
*285 _183_
*286 _184_
*287 _0__18_
*288 _185_
*289 _186_
*290 _187_
*291 _188_
*292 _189_
*293 _0__19_
*294 _190_
*295 _191_
*296 _192_
*297 _193_
*298 _0__20_
*299 _194_
*300 _195_
*301 _196_
*302 _197_
*303 _198_
*304 _0__21_
*305 _199_
*306 _200_
*307 _201_
*308 _0__22_
*309 _204_
*310 _202_
*311 _205_
*312 _203_
*313 _206__3_
*314 _206__2_
*315 _206__8_
*316 out_data[0]
*317 out_data[1]
*318 out_data[2]
*319 out_data[3]
*320 out_data[4]
*321 out_data[5]
*322 out_data[6]
*323 out_data[7]
*324 out_data[8]
*325 out_data[9]
*326 out_data[10]
*327 out_data[11]
*328 out_data[12]
*329 out_data[13]
*330 out_data[14]
*331 out_data[15]
*332 out_data[16]
*333 out_data[17]
*334 out_data[18]
*335 out_data[19]
*336 out_data[20]
*337 out_data[21]
*338 out_data[22]
*339 out_data[23]
*340 rd_req
*341 wr_req

*D_NET *0 0.00027772467999999997
*CONN
*I DFFPOSX1_8:Q O
*I BUFX4_4:A I
*I BUFX4_3:A I
*I BUFX4_2:A I
*I BUFX4_1:A I
*CAP
0 *0:1 2.5157e-05
1 *0:2 1.836e-07
2 *0:3 2.527796e-05
3 *0:4 9.408e-08
4 *0:5 5.0314e-05
5 BUFX4_1:A 2.88e-08
6 *0:7 2.5157e-05
7 *0:8 6.119999999999999e-08
8 *0:9 2.5157e-05
9 *0:10 2.5157e-05
10 *0:11 4.08e-07
11 *0:12 2.5157e-05
12 *0:13 2.5157e-05
13 *0:14 2.0399999999999997e-08
14 *0:15 2.5157e-05
15 *0:16 8.063999999999999e-08
16 *0:17 2.5157e-05
*RES
0 BUFX4_2:A *0:1 5.0
1 *0:1 *0:2 2100.0000000000005
2 *0:2 *0:3 5.0
3 *0:3 *0:4 2053.333333333334
4 *0:4 *0:5 5.0
5 *0:6 *0:5 5.0
6 *0:6 BUFX4_1:A 186.6666666666667
7 DFFPOSX1_8:Q *0:7 5.0
8 *0:7 *0:8 700.0000000000001
9 *0:8 *0:9 5.0
10 *0:9 *0:3 3360.000000000001
11 BUFX4_3:A *0:10 5.0
12 *0:10 *0:11 4666.666666666668
13 *0:11 *0:12 5.0
14 *0:12 *0:4 560.0000000000001
15 BUFX4_4:A *0:13 5.0
16 *0:13 *0:14 233.33333333333337
17 *0:14 *0:15 5.0
18 *0:15 *0:16 2240.0000000000005
19 *0:16 *0:17 5.0
*END

*D_NET *1 0.00040346215999999984
*CONN
*I NAND2X1_41:A I
*I NAND2X1_38:A I
*I OAI21X1_39:C I
*I OAI21X1_37:C I
*I OAI21X1_38:C I
*I OAI21X1_40:C I
*I BUFX4_1:Y O
*CAP
17 *1:1 2.5157e-05
18 *1:2 2.521748e-05
19 *1:3 4.031999999999999e-08
20 *1:4 5.04976e-05
21 *1:5 2.5157e-05
22 *1:6 2.5157e-05
23 *1:7 1.344e-08
24 *1:8 2.5157e-05
25 *1:9 2.5157e-05
26 *1:10 1.836e-07
27 *1:11 2.5157e-05
28 *1:12 2.5157e-05
29 *1:13 1.2239999999999998e-07
30 *1:14 2.516372e-05
31 *1:15 1.6799999999999997e-07
32 *1:16 2.5157e-05
33 *1:17 2.5157e-05
34 *1:18 1.02e-07
35 *1:19 2.5157e-05
36 *1:20 2.5157e-05
37 *1:21 4.0799999999999995e-08
38 *1:22 2.5157e-05
39 OAI21X1_37:C 2.88e-08
*RES
20 OAI21X1_40:C *1:1 5.0
21 *1:1 *1:2 5.0
22 *1:2 *1:3 1120.0000000000002
23 *1:3 *1:4 5.0
24 BUFX4_1:Y *1:4 5.0
25 OAI21X1_39:C *1:5 5.0
26 *1:5 *1:6 5.0
27 *1:6 *1:7 373.3333333333334
28 *1:7 *1:8 5.0
29 *1:8 *1:4 2100.0000000000005
30 OAI21X1_38:C *1:9 5.0
31 *1:9 *1:10 2100.0000000000005
32 *1:10 *1:11 5.0
33 *1:11 *1:2 1680.0000000000005
34 NAND2X1_38:A *1:12 5.0
35 *1:12 *1:13 1400.0000000000002
36 *1:13 *1:14 5.0
37 *1:14 *1:15 4666.666666666668
38 *1:15 *1:16 5.0
39 OAI21X1_37:C *1:17 5.0
40 *1:17 *1:18 1166.666666666667
41 *1:18 *1:19 5.0
42 *1:19 *1:14 186.6666666666667
43 NAND2X1_41:A *1:20 5.0
44 *1:20 *1:21 466.66666666666674
45 *1:21 *1:22 5.0
46 *1:22 OAI21X1_37:C 186.6666666666667
*END

*D_NET *2 0.00030272568
*CONN
*I AOI21X1_14:B I
*I NAND2X1_23:B I
*I INVX4_1:A I
*I AOI22X1_13:C I
*I NOR2X1_18:B I
*I NAND2X1_47:A I
*I BUFX4_2:Y O
*CAP
40 *2:1 5.0314e-05
41 *2:2 1.6319999999999998e-07
42 BUFX4_2:Y 2.5157e-05
43 INVX4_1:A 2.88e-08
44 *2:3 2.51978e-05
45 *2:4 2.0399999999999997e-08
46 *2:5 2.5157e-05
47 *2:6 5.376e-08
48 *2:7 2.5157e-05
49 *2:8 2.6519999999999997e-07
50 *2:9 2.5157e-05
51 *2:10 2.5157e-05
52 *2:11 4.0799999999999995e-08
53 *2:12 2.531156e-05
54 *2:13 5.376e-08
55 *2:14 2.5157e-05
56 *2:15 2.5157e-05
57 *2:16 2.0399999999999997e-08
58 *2:17 2.5157e-05
*RES
47 INVX4_1:A *2:1 5.0
48 *2:1 *2:2 1866.666666666667
49 *2:2 BUFX4_2:Y 5.0
50 NAND2X1_47:A INVX4_1:A 186.6666666666667
51 AOI22X1_13:C *2:3 5.0
52 *2:3 *2:4 233.33333333333337
53 *2:4 *2:5 5.0
54 *2:5 *2:6 1493.3333333333337
55 *2:6 *2:1 5.0
56 AOI21X1_14:B *2:7 5.0
57 *2:7 *2:8 3033.333333333334
58 *2:8 *2:9 5.0
59 NOR2X1_18:B *2:10 5.0
60 *2:10 *2:11 466.66666666666674
61 *2:11 *2:12 5.0
62 *2:12 *2:13 1493.3333333333337
63 *2:13 *2:14 5.0
64 *2:14 *2:3 466.66666666666674
65 NAND2X1_23:B *2:15 5.0
66 *2:15 *2:16 233.33333333333337
67 *2:16 *2:17 5.0
68 *2:17 *2:12 4293.333333333334
*END

*D_NET *3 0.0004796142799999999
*CONN
*I AOI22X1_3:C I
*I NAND3X1_15:A I
*I NAND3X1_18:A I
*I OAI21X1_27:C I
*I AOI21X1_10:B I
*I NAND2X1_27:A I
*I BUFX4_3:Y O
*CAP
59 *3:1 2.5157e-05
60 *3:2 6.119999999999999e-08
61 *3:3 2.523764e-05
62 *3:4 1.7471999999999997e-07
63 *3:5 2.5157e-05
64 *3:6 4.0799999999999995e-08
65 BUFX4_3:Y 2.5157e-05
66 *3:7 2.55038e-05
67 *3:8 6.119999999999999e-08
68 *3:9 2.5157e-05
69 *3:10 2.5157e-05
70 *3:11 2.5259e-05
71 *3:12 1.632e-08
72 *3:13 2.88e-08
73 *3:14 2.5157e-05
74 *3:15 2.5157e-05
75 *3:16 6.048e-08
76 *3:17 2.5157e-05
77 *3:18 3.839999999999999e-08
78 *3:19 2.5157e-05
79 *3:20 2.0159999999999997e-08
80 *3:21 2.5157e-05
81 *3:22 8.159999999999999e-08
82 *3:23 2.5157e-05
83 *3:24 1.2096e-07
84 *3:25 2.5157e-05
85 *3:26 2.0159999999999998e-07
86 *3:27 2.5157e-05
87 *3:28 2.5157e-05
88 *3:29 6.119999999999999e-08
89 *3:30 2.5157e-05
90 *3:31 1.3439999999999999e-07
91 *3:32 2.5157e-05
*RES
69 AOI21X1_10:B *3:1 5.0
70 *3:1 *3:2 700.0000000000001
71 *3:2 *3:3 5.0
72 *3:3 *3:4 3546.666666666667
73 *3:4 *3:5 5.0
74 *3:5 *3:6 466.66666666666674
75 *3:6 BUFX4_3:Y 5.0
76 NAND2X1_27:A *3:7 5.0
77 *3:7 *3:8 700.0000000000001
78 *3:8 *3:9 5.0
79 *3:9 *3:3 2240.0000000000005
80 NAND3X1_15:A *3:10 5.0
81 *3:10 *3:11 1166.666666666667
82 *3:11 *3:12 186.6666666666667
83 *3:12 *3:7 3966.6666666666674
84 AOI22X1_3:C *3:13 186.6666666666667
85 *3:13 *3:14 5.0
86 *3:14 *3:15 5.0
87 *3:15 *3:16 1680.0000000000005
88 *3:16 *3:17 5.0
89 *3:17 *3:18 266.6666666666667
90 *3:18 *3:19 5.0
91 *3:19 *3:20 560.0000000000001
92 *3:20 *3:11 5.0
93 NAND3X1_18:A *3:21 5.0
94 *3:21 *3:22 933.3333333333335
95 *3:22 *3:23 5.0
96 *3:23 *3:24 3360.000000000001
97 *3:24 *3:25 5.0
98 *3:25 *3:26 1400.0
99 *3:26 *3:27 5.0
100 *3:27 *3:4 1306.6666666666667
101 OAI21X1_27:C *3:28 5.0
102 *3:28 *3:29 700.0000000000001
103 *3:29 *3:30 5.0
104 *3:30 *3:31 3733.333333333334
105 *3:31 *3:32 5.0
*END

*D_NET *4 0.0003530036799999999
*CONN
*I NAND3X1_20:A I
*I AOI22X1_5:C I
*I NAND3X1_23:A I
*I OAI21X1_36:C I
*I NAND3X1_21:B I
*I BUFX4_4:Y O
*CAP
92 *4:1 2.5565e-05
93 *4:2 2.5157e-05
94 *4:3 6.719999999999999e-08
95 *4:4 5.0314e-05
96 *4:5 5.0314e-05
97 *4:6 2.5157e-05
98 *4:7 2.0399999999999997e-08
99 *4:8 2.5157e-05
100 *4:9 3.3599999999999996e-08
101 *4:10 2.5157e-05
102 *4:11 2.0399999999999997e-08
103 *4:12 2.5157e-05
104 *4:13 8.736e-08
105 *4:14 2.5157e-05
106 *4:15 2.5157e-05
107 *4:16 6.119999999999999e-08
108 *4:17 2.5157e-05
109 *4:18 1.0752e-07
110 *4:19 2.5157e-05
*RES
106 OAI21X1_36:C *4:1 5.0
107 *4:1 *4:2 5.0
108 *4:2 *4:3 1866.666666666667
109 *4:3 *4:4 5.0
110 BUFX4_4:Y *4:4 5.0
111 NAND3X1_20:A *4:5 5.0
112 *4:5 *4:1 4666.666666666668
113 AOI22X1_5:C *4:6 5.0
114 *4:6 *4:7 233.33333333333337
115 *4:7 *4:8 5.0
116 *4:8 *4:9 933.3333333333335
117 *4:9 *4:5 5.0
118 NAND3X1_21:B *4:10 5.0
119 *4:10 *4:11 233.33333333333337
120 *4:11 *4:12 5.0
121 *4:12 *4:13 2426.666666666667
122 *4:13 *4:14 5.0
123 NAND3X1_23:A *4:15 5.0
124 *4:15 *4:16 700.0000000000001
125 *4:16 *4:17 5.0
126 *4:17 *4:18 2986.6666666666674
127 *4:18 *4:19 5.0
*END

*D_NET *5 0.0004045667779999999
*CONN
*P clk O
*I BUFX4_10:A I
*I BUFX4_9:A I
*I BUFX4_8:A I
*I BUFX4_7:A I
*I BUFX4_6:A I
*I BUFX4_5:A I
*CAP
111 *5:1 2.5157e-05
112 *5:2 5.915999999999999e-07
113 *5:3 5.0314e-05
114 *5:4 3.0912e-07
115 *5:5 2.5157e-05
116 *5:6 1.02e-07
117 BUFX4_5:A 2.5157e-05
118 *5:7 2.5157e-05
119 *5:8 2.5157e-05
120 *5:9 8.159999999999999e-08
121 *5:10 2.521076e-05
122 *5:11 4.0698e-08
123 *5:12 2.5157e-05
124 *5:13 2.5157e-05
125 *5:14 2.7839999999999995e-07
126 *5:15 2.5157e-05
127 *5:16 2.0399999999999997e-08
128 *5:17 2.517716e-05
129 *5:18 4.703999999999999e-08
130 *5:19 2.5157e-05
131 *5:20 3.06e-07
132 *5:21 2.5157e-05
133 *5:22 2.5157e-05
134 *5:23 2.04e-07
135 *5:24 2.5157e-05
*RES
128 BUFX4_9:A *5:1 5.0
129 *5:1 *5:2 933.3333333333335
130 *5:2 *5:3 5.0
131 *5:3 *5:4 3546.666666666667
132 *5:4 *5:5 5.0
133 *5:5 *5:6 1166.666666666667
134 *5:6 BUFX4_5:A 5.0
135 BUFX4_7:A *5:7 5.0
136 *5:7 *5:2 5833.333333333335
137 BUFX4_6:A *5:8 5.0
138 *5:8 *5:9 933.3333333333335
139 *5:9 *5:10 5.0
140 *5:10 *5:4 5040.000000000001
141 clk *5:11 465.5000000000001
142 *5:11 *5:12 5.0
143 *5:12 *5:13 5.0
144 *5:13 *5:14 1933.3333333333333
145 *5:14 *5:3 5.0
146 BUFX4_8:A *5:15 5.0
147 *5:15 *5:16 233.33333333333337
148 *5:16 *5:17 5.0
149 *5:17 *5:18 1306.6666666666667
150 *5:18 *5:19 5.0
151 *5:19 *5:20 3500.0000000000005
152 *5:20 *5:21 5.0
153 *5:21 *5:10 1493.3333333333337
154 BUFX4_10:A *5:22 5.0
155 *5:22 *5:23 2333.333333333334
156 *5:23 *5:24 5.0
157 *5:24 *5:17 560.0000000000001
*END

*D_NET *6 0.00047913715999999993
*CONN
*I DFFPOSX1_44:CLK I
*I DFFPOSX1_42:CLK I
*I DFFPOSX1_47:CLK I
*I DFFPOSX1_8:CLK I
*I DFFPOSX1_43:CLK I
*I DFFPOSX1_41:CLK I
*I DFFPOSX1_34:CLK I
*I DFFPOSX1_33:CLK I
*I BUFX4_5:Y O
*CAP
136 *6:1 2.5157e-05
137 *6:2 2.52998e-05
138 *6:3 2.5157e-05
139 BUFX4_5:Y 2.88e-08
140 *6:4 2.5157e-05
141 *6:5 2.5157e-05
142 *6:6 5.376e-08
143 *6:7 2.54222e-05
144 *6:8 1.2239999999999998e-07
145 DFFPOSX1_34:CLK 2.5157e-05
146 *6:9 5.0314e-05
147 *6:10 2.5157e-05
148 *6:11 1.02e-07
149 DFFPOSX1_33:CLK 2.5157e-05
150 *6:12 2.52386e-05
151 *6:13 2.5157e-05
152 *6:14 3.3599999999999996e-08
153 *6:15 2.5157e-05
154 *6:16 1.2239999999999998e-07
155 *6:17 2.5157e-05
156 *6:18 1.4784e-07
157 *6:19 2.5157e-05
158 *6:20 2.5157e-05
159 *6:21 2.5157e-05
160 *6:22 5.376e-08
161 *6:23 2.5157e-05
*RES
158 DFFPOSX1_41:CLK *6:1 5.0
159 *6:1 *6:2 1633.3333333333337
160 *6:2 *6:3 5.0
161 *6:3 BUFX4_5:Y 186.6666666666667
162 DFFPOSX1_34:CLK *6:4 5.0
163 *6:4 *6:5 5.0
164 *6:5 *6:6 1493.3333333333337
165 *6:6 *6:2 5.0
166 DFFPOSX1_8:CLK *6:7 5.0
167 *6:7 *6:8 1400.0000000000002
168 *6:8 DFFPOSX1_34:CLK 5.0
169 DFFPOSX1_33:CLK *6:9 5.0
170 *6:9 *6:7 3033.333333333334
171 DFFPOSX1_43:CLK *6:10 5.0
172 *6:10 *6:11 1166.666666666667
173 *6:11 DFFPOSX1_33:CLK 5.0
174 DFFPOSX1_42:CLK *6:12 5.0
175 *6:12 *6:13 5.0
176 *6:13 *6:14 933.3333333333335
177 *6:14 *6:9 5.0
178 DFFPOSX1_44:CLK *6:15 5.0
179 *6:15 *6:16 466.66666666666674
180 *6:16 *6:17 5.0
181 *6:17 *6:18 4106.666666666668
182 *6:18 *6:19 5.0
183 *6:19 *6:12 933.3333333333335
184 DFFPOSX1_47:CLK *6:20 5.0
185 *6:20 *6:21 5.0
186 *6:21 *6:22 1493.3333333333337
187 *6:22 *6:23 5.0
188 *6:23 *6:16 933.3333333333335
*END

*D_NET *7 0.00042901623999999985
*CONN
*I DFFPOSX1_30:CLK I
*I DFFPOSX1_29:CLK I
*I DFFPOSX1_31:CLK I
*I DFFPOSX1_25:CLK I
*I DFFPOSX1_27:CLK I
*I DFFPOSX1_28:CLK I
*I DFFPOSX1_24:CLK I
*I DFFPOSX1_32:CLK I
*I BUFX4_6:Y O
*CAP
162 *7:2 1.8e-09
163 BUFX4_6:Y 5.76e-08
164 *7:3 5.0314e-05
165 *7:4 2.4479999999999997e-07
166 *7:5 2.5157e-05
167 *7:6 2.0159999999999997e-08
168 *7:7 2.5157e-05
169 *7:8 1.02e-07
170 *7:9 2.5157e-05
171 DFFPOSX1_32:CLK 1.2599999999999999e-08
172 *7:10 2.5157e-05
173 *7:11 2.5157e-05
174 *7:12 2.2847999999999997e-07
175 *7:13 2.5157e-05
176 *7:14 2.520404e-05
177 *7:15 2.5157e-05
178 *7:16 2.523764e-05
179 *7:17 2.5157e-05
180 *7:18 2.5157e-05
181 *7:19 2.5157e-05
182 *7:20 6.119999999999999e-08
183 *7:21 1.632e-08
184 *7:22 3.4679999999999996e-07
185 DFFPOSX1_27:CLK 2.51624e-05
186 *7:23 2.5157e-05
187 *7:24 1.2239999999999998e-07
188 DFFPOSX1_25:CLK 2.5157e-05
*RES
189 *7:1 *7:2 11.66666666666667
190 *7:2 BUFX4_6:Y 373.3333333333334
191 DFFPOSX1_31:CLK *7:3 5.0
192 *7:3 *7:4 2800.0000000000005
193 *7:4 *7:5 5.0
194 *7:5 *7:6 560.0000000000001
195 *7:6 *7:7 5.0
196 *7:7 *7:8 1166.666666666667
197 *7:8 *7:9 5.0
198 *7:9 DFFPOSX1_32:CLK 81.66666666666667
199 DFFPOSX1_29:CLK *7:10 5.0
200 *7:10 *7:11 5.0
201 *7:11 *7:12 560.0000000000001
202 *7:12 *7:3 5.0
203 DFFPOSX1_30:CLK *7:13 5.0
204 *7:13 *7:14 5.0
205 *7:14 *7:12 5786.666666666668
206 DFFPOSX1_28:CLK *7:15 5.0
207 *7:15 *7:16 5.0
208 *7:16 *7:14 1306.6666666666667
209 DFFPOSX1_27:CLK *7:17 5.0
210 *7:17 *7:18 5.0
211 *7:18 *7:16 2240.0000000000005
212 DFFPOSX1_25:CLK *7:19 5.0
213 *7:19 *7:20 700.0000000000001
214 *7:20 *7:21 186.6666666666667
215 *7:21 *7:22 3966.6666666666674
216 *7:22 DFFPOSX1_27:CLK 5.0
217 DFFPOSX1_27:CLK DFFPOSX1_27:CLK 35.00000000000001
218 DFFPOSX1_24:CLK *7:23 5.0
219 *7:23 *7:24 1400.0000000000002
220 *7:24 DFFPOSX1_25:CLK 5.0
*END

*D_NET *8 0.00032859523999999996
*CONN
*I DFFPOSX1_5:CLK I
*I DFFPOSX1_4:CLK I
*I DFFPOSX1_2:CLK I
*I DFFPOSX1_39:CLK I
*I DFFPOSX1_7:CLK I
*I DFFPOSX1_10:CLK I
*I DFFPOSX1_6:CLK I
*I DFFPOSX1_11:CLK I
*I BUFX4_7:Y O
*CAP
189 *8:1 2.52998e-05
190 *8:2 2.6519999999999997e-07
191 *8:3 2.5157e-05
192 BUFX4_7:Y 2.88e-08
193 *8:4 2.5157e-05
194 *8:5 5.0314e-05
195 *8:6 2.4479999999999997e-07
196 DFFPOSX1_7:CLK 2.5157e-05
197 *8:8 1.8e-09
198 *8:9 1.152e-07
199 *8:10 1.8e-09
200 *8:11 2.5157e-05
201 *8:12 2.5157e-05
202 *8:13 1.4784e-07
203 *8:14 2.5157e-05
204 *8:15 2.04e-07
205 *8:16 2.5157e-05
206 DFFPOSX1_11:CLK 1.2599999999999999e-08
207 *8:17 2.53814e-05
208 *8:18 1.6319999999999998e-07
209 DFFPOSX1_4:CLK 2.51588e-05
210 *8:19 2.5157e-05
*RES
221 DFFPOSX1_6:CLK *8:1 5.0
222 *8:1 *8:2 3033.333333333334
223 *8:2 *8:3 5.0
224 *8:3 BUFX4_7:Y 186.6666666666667
225 DFFPOSX1_7:CLK *8:4 5.0
226 *8:4 *8:1 1633.3333333333337
227 DFFPOSX1_5:CLK *8:5 5.0
228 *8:5 *8:6 2800.0000000000005
229 *8:6 DFFPOSX1_7:CLK 5.0
230 *8:7 *8:8 11.66666666666667
231 *8:8 *8:9 746.6666666666669
232 *8:9 *8:10 11.66666666666667
233 DFFPOSX1_11:CLK *8:11 5.0
234 *8:11 *8:12 5.0
235 *8:12 *8:13 4106.666666666668
236 *8:13 *8:5 5.0
237 DFFPOSX1_4:CLK *8:14 5.0
238 *8:14 *8:15 2333.333333333334
239 *8:15 *8:16 5.0
240 *8:16 DFFPOSX1_11:CLK 81.66666666666667
241 DFFPOSX1_10:CLK *8:17 5.0
242 *8:17 *8:18 1866.666666666667
243 *8:18 DFFPOSX1_4:CLK 5.0
244 DFFPOSX1_4:CLK DFFPOSX1_4:CLK 11.66666666666667
245 DFFPOSX1_2:CLK *8:19 5.0
246 *8:19 *8:17 2566.666666666667
*END

*D_NET *9 0.0004041962
*CONN
*I DFFPOSX1_13:CLK I
*I DFFPOSX1_16:CLK I
*I DFFPOSX1_9:CLK I
*I DFFPOSX1_14:CLK I
*I DFFPOSX1_1:CLK I
*I DFFPOSX1_15:CLK I
*I DFFPOSX1_48:CLK I
*I DFFPOSX1_12:CLK I
*I BUFX4_8:Y O
*CAP
211 *9:1 2.5157e-05
212 *9:2 1.2239999999999998e-07
213 BUFX4_8:Y 2.5157e-05
214 *9:3 2.5157e-05
215 *9:4 3.4679999999999996e-07
216 *9:5 2.5157e-05
217 DFFPOSX1_16:CLK 1.2599999999999999e-08
218 *9:6 2.5157e-05
219 *9:7 2.0399999999999997e-08
220 *9:8 2.5157e-05
221 *9:9 1.4111999999999998e-07
222 *9:10 2.5157e-05
223 *9:11 2.88e-08
224 *9:12 2.5157e-05
225 *9:13 2.54018e-05
226 *9:14 2.5157e-05
227 *9:15 2.88e-08
228 *9:16 1.8e-09
229 *9:17 2.5157e-05
230 *9:18 1.4279999999999998e-07
231 DFFPOSX1_1:CLK 2.5157e-05
232 *9:19 2.5157e-05
233 *9:20 1.6319999999999998e-07
234 *9:21 2.5157e-05
235 *9:22 1.2768e-07
236 *9:23 2.5157e-05
237 *9:24 2.6519999999999997e-07
238 DFFPOSX1_9:CLK 2.51624e-05
239 *9:26 1.8e-09
240 *9:27 2.88e-08
241 *9:28 1.8e-09
*RES
247 DFFPOSX1_16:CLK *9:1 5.0
248 *9:1 *9:2 1400.0000000000002
249 *9:2 BUFX4_8:Y 5.0
250 DFFPOSX1_12:CLK *9:3 5.0
251 *9:3 *9:4 3966.6666666666674
252 *9:4 *9:5 5.0
253 *9:5 DFFPOSX1_16:CLK 81.66666666666667
254 DFFPOSX1_15:CLK *9:6 5.0
255 *9:6 *9:7 233.33333333333337
256 *9:7 *9:8 5.0
257 *9:8 *9:9 3920.000000000001
258 *9:9 *9:10 5.0
259 DFFPOSX1_1:CLK *9:11 186.6666666666667
260 *9:11 *9:12 5.0
261 *9:12 *9:13 2800.0000000000005
262 *9:13 *9:14 5.0
263 *9:14 *9:15 186.6666666666667
264 *9:15 *9:16 11.66666666666667
265 DFFPOSX1_48:CLK *9:17 5.0
266 *9:17 *9:18 1633.3333333333337
267 *9:18 DFFPOSX1_1:CLK 5.0
268 DFFPOSX1_9:CLK *9:19 5.0
269 *9:19 *9:20 1866.666666666667
270 *9:20 *9:21 5.0
271 *9:21 *9:22 3546.666666666667
272 *9:22 *9:13 5.0
273 DFFPOSX1_13:CLK *9:23 5.0
274 *9:23 *9:24 3033.333333333334
275 *9:24 DFFPOSX1_9:CLK 5.0
276 DFFPOSX1_9:CLK DFFPOSX1_9:CLK 35.00000000000001
277 *9:25 *9:26 11.66666666666667
278 *9:26 *9:27 186.6666666666667
279 *9:27 *9:28 11.66666666666667
*END

*D_NET *10 0.0003536571999999999
*CONN
*I DFFPOSX1_37:CLK I
*I DFFPOSX1_3:CLK I
*I DFFPOSX1_46:CLK I
*I DFFPOSX1_38:CLK I
*I DFFPOSX1_40:CLK I
*I DFFPOSX1_36:CLK I
*I DFFPOSX1_45:CLK I
*I DFFPOSX1_35:CLK I
*I BUFX4_9:Y O
*CAP
242 *10:1 2.5157e-05
243 *10:2 1.0199999999999999e-07
244 BUFX4_9:Y 2.5157e-05
245 *10:3 2.5157e-05
246 *10:4 2.4479999999999997e-07
247 *10:5 2.5157e-05
248 DFFPOSX1_38:CLK 2.88e-08
249 *10:7 1.8e-09
250 *10:8 2.88e-08
251 *10:9 1.8e-09
252 *10:10 2.5157e-05
253 *10:11 4.0799999999999995e-08
254 *10:12 2.523764e-05
255 *10:13 1.5455999999999998e-07
256 *10:14 2.5157e-05
257 *10:15 2.53814e-05
258 *10:16 4.0799999999999995e-08
259 *10:17 2.5157e-05
260 *10:18 2.5157e-05
261 *10:19 2.5157e-05
262 *10:20 1.02e-07
263 DFFPOSX1_46:CLK 2.5157e-05
264 *10:21 2.5157e-05
265 *10:22 4.08e-07
266 DFFPOSX1_36:CLK 2.5157e-05
*RES
280 DFFPOSX1_38:CLK *10:1 5.0
281 *10:1 *10:2 933.3333333333335
282 *10:2 BUFX4_9:Y 5.0
283 DFFPOSX1_40:CLK *10:3 5.0
284 *10:3 *10:4 2800.0000000000005
285 *10:4 *10:5 5.0
286 *10:5 DFFPOSX1_38:CLK 186.6666666666667
287 *10:6 *10:7 11.66666666666667
288 *10:7 *10:8 186.6666666666667
289 *10:8 *10:9 11.66666666666667
290 DFFPOSX1_37:CLK *10:10 5.0
291 *10:10 *10:11 466.66666666666674
292 *10:11 *10:12 5.0
293 *10:12 *10:13 4293.333333333334
294 *10:13 *10:14 5.0
295 *10:14 *10:2 233.33333333333337
296 DFFPOSX1_36:CLK *10:15 5.0
297 *10:15 *10:16 466.66666666666674
298 *10:16 *10:17 5.0
299 *10:17 *10:12 2240.0000000000005
300 DFFPOSX1_46:CLK *10:18 5.0
301 *10:18 *10:15 2566.666666666667
302 DFFPOSX1_45:CLK *10:19 5.0
303 *10:19 *10:20 1166.666666666667
304 *10:20 DFFPOSX1_46:CLK 5.0
305 DFFPOSX1_35:CLK *10:21 5.0
306 *10:21 *10:22 4666.666666666668
307 *10:22 DFFPOSX1_36:CLK 5.0
*END

*D_NET *11 0.00040428128
*CONN
*I DFFPOSX1_21:CLK I
*I DFFPOSX1_23:CLK I
*I DFFPOSX1_20:CLK I
*I DFFPOSX1_26:CLK I
*I DFFPOSX1_22:CLK I
*I DFFPOSX1_18:CLK I
*I DFFPOSX1_19:CLK I
*I DFFPOSX1_17:CLK I
*I BUFX4_10:Y O
*CAP
267 *11:1 2.5157e-05
268 *11:2 2.530484e-05
269 *11:3 4.703999999999999e-08
270 *11:4 2.5157e-05
271 *11:5 2.0399999999999997e-08
272 *11:6 2.5157e-05
273 BUFX4_10:Y 2.52146e-05
274 *11:7 2.51774e-05
275 *11:8 5.711999999999999e-07
276 *11:9 2.5157e-05
277 *11:10 2.0399999999999997e-08
278 *11:11 2.529812e-05
279 *11:12 1.4111999999999998e-07
280 *11:13 2.5157e-05
281 *11:14 2.5157e-05
282 *11:15 4.0799999999999995e-08
283 *11:16 2.5157e-05
284 *11:18 1.8e-09
285 *11:19 2.88e-08
286 *11:20 1.8e-09
287 *11:21 2.5157e-05
288 *11:22 1.4279999999999998e-07
289 *11:23 2.527796e-05
290 *11:24 2.5157e-05
291 *11:25 2.6519999999999997e-07
292 *11:26 2.5157e-05
293 *11:27 2.5157e-05
*RES
308 DFFPOSX1_21:CLK *11:1 5.0
309 *11:1 *11:2 5.0
310 *11:2 *11:3 1306.6666666666667
311 *11:3 *11:4 5.0
312 *11:4 *11:5 233.33333333333337
313 *11:5 *11:6 5.0
314 *11:6 BUFX4_10:Y 373.3333333333334
315 DFFPOSX1_17:CLK *11:7 5.0
316 *11:7 *11:8 6533.333333333335
317 *11:8 BUFX4_10:Y 5.0
318 DFFPOSX1_18:CLK *11:9 5.0
319 *11:9 *11:10 233.33333333333337
320 *11:10 *11:11 5.0
321 *11:11 *11:12 3920.000000000001
322 *11:12 *11:13 5.0
323 *11:13 *11:7 233.33333333333337
324 DFFPOSX1_20:CLK *11:14 5.0
325 *11:14 *11:15 466.66666666666674
326 *11:15 *11:16 5.0
327 *11:16 *11:11 3920.000000000001
328 *11:17 *11:18 11.66666666666667
329 *11:18 *11:19 186.6666666666667
330 *11:19 *11:20 11.66666666666667
331 DFFPOSX1_26:CLK *11:21 5.0
332 *11:21 *11:22 1633.3333333333337
333 *11:22 *11:23 5.0
334 *11:23 *11:2 4106.666666666668
335 DFFPOSX1_23:CLK *11:24 5.0
336 *11:24 *11:25 233.33333333333337
337 *11:25 *11:26 5.0
338 *11:26 *11:23 3360.000000000001
339 DFFPOSX1_22:CLK *11:27 5.0
340 *11:27 *11:25 2800.0000000000005
*END

*D_NET *12 0.00017666409799999998
*CONN
*P rst O
*I NOR2X1_34:A I
*I AOI21X1_3:C I
*I INVX2_1:A I
*CAP
294 *12:1 3.6e-08
295 INVX2_1:A 2.51858e-05
296 *12:2 2.5157e-05
297 *12:3 2.5157e-05
298 *12:4 6.719999999999999e-08
299 *12:5 2.5157e-05
300 *12:6 1.2239999999999998e-07
301 *12:7 6.1098e-08
302 *12:8 2.5157e-05
303 *12:9 2.5157e-05
304 *12:10 2.4959999999999996e-07
305 *12:11 2.5157e-05
*RES
341 NOR2X1_34:A *12:1 233.33333333333337
342 *12:1 INVX2_1:A 186.6666666666667
343 AOI21X1_3:C *12:2 5.0
344 *12:2 *12:3 5.0
345 *12:3 *12:4 1866.666666666667
346 *12:4 *12:5 5.0
347 *12:5 *12:6 1400.0000000000002
348 *12:6 INVX2_1:A 5.0
349 rst *12:7 698.8333333333335
350 *12:7 *12:8 5.0
351 *12:8 *12:9 5.0
352 *12:9 *12:10 1733.3333333333335
353 *12:10 *12:11 5.0
*END

*D_NET *13 0.0005048339199999999
*CONN
*I AND2X2_7:A I
*I NAND2X1_48:B I
*I AND2X2_6:A I
*I OAI21X1_4:C I
*I OAI21X1_2:C I
*I NAND2X1_1:B I
*I OAI21X1_1:C I
*I INVX2_1:Y O
*CAP
306 *13:1 2.5157e-05
307 *13:2 2.0399999999999997e-08
308 *13:3 2.5157e-05
309 *13:4 2.688e-08
310 *13:5 2.5157e-05
311 *13:6 3.2639999999999996e-07
312 INVX2_1:Y 2.5157e-05
313 *13:7 2.5157e-05
314 *13:8 4.0799999999999995e-08
315 *13:9 2.527796e-05
316 *13:10 1.8144000000000002e-07
317 *13:11 2.5157e-05
318 *13:12 2.5157e-05
319 *13:13 2.5157e-05
320 *13:14 2.5157e-05
321 *13:15 4.08e-07
322 *13:16 2.5157e-05
323 *13:17 2.5157e-05
324 *13:18 2.0399999999999997e-08
325 *13:19 2.516372e-05
326 *13:20 8.399999999999999e-09
327 *13:21 2.5157e-05
328 *13:22 1.0559999999999999e-07
329 *13:23 2.5157e-05
330 *13:24 2.53406e-05
331 *13:25 2.04e-07
332 *13:26 2.5157e-05
333 *13:27 2.5157e-05
334 *13:28 2.5157e-05
335 *13:29 4.031999999999999e-08
336 *13:30 2.5157e-05
*RES
354 OAI21X1_1:C *13:1 5.0
355 *13:1 *13:2 233.33333333333337
356 *13:2 *13:3 5.0
357 *13:3 *13:4 746.6666666666669
358 *13:4 *13:5 5.0
359 *13:5 *13:6 3733.333333333334
360 *13:6 INVX2_1:Y 5.0
361 OAI21X1_2:C *13:7 5.0
362 *13:7 *13:8 466.66666666666674
363 *13:8 *13:9 5.0
364 *13:9 *13:10 5040.000000000001
365 *13:10 *13:11 5.0
366 AND2X2_6:A *13:12 5.0
367 *13:12 *13:13 5.0
368 *13:13 *13:9 3360.000000000001
369 AND2X2_7:A *13:14 5.0
370 *13:14 *13:15 4666.666666666668
371 *13:15 *13:16 5.0
372 NAND2X1_1:B *13:17 5.0
373 *13:17 *13:18 233.33333333333337
374 *13:18 *13:19 5.0
375 *13:19 *13:20 233.33333333333337
376 *13:20 *13:21 5.0
377 *13:21 *13:22 733.3333333333334
378 *13:22 *13:23 5.0
379 OAI21X1_4:C *13:24 5.0
380 *13:24 *13:25 2333.333333333334
381 *13:25 *13:26 5.0
382 *13:26 *13:19 186.6666666666667
383 NAND2X1_48:B *13:27 5.0
384 *13:27 *13:28 5.0
385 *13:28 *13:29 1120.0000000000002
386 *13:29 *13:30 5.0
387 *13:30 *13:24 2100.0000000000005
*END

*D_NET *14 0.00017692124
*CONN
*I DFFPOSX1_9:Q O
*I AOI21X1_2:B I
*I INVX1_1:A I
*CAP
337 *14:1 2.5157e-05
338 *14:2 1.6319999999999998e-07
339 *14:3 2.5157e-05
340 *14:4 2.0159999999999997e-08
341 *14:5 2.5157e-05
342 *14:6 2.8559999999999996e-07
343 INVX1_1:A 2.5157e-05
344 *14:7 2.5157e-05
345 *14:8 3.2639999999999996e-07
346 *14:9 2.5157e-05
347 *14:10 2.688e-08
348 *14:11 2.5157e-05
*RES
388 DFFPOSX1_9:Q *14:1 5.0
389 *14:1 *14:2 1866.666666666667
390 *14:2 *14:3 5.0
391 *14:3 *14:4 560.0000000000001
392 *14:4 *14:5 5.0
393 *14:5 *14:6 2566.666666666667
394 *14:6 INVX1_1:A 5.0
395 AOI21X1_2:B *14:7 5.0
396 *14:7 *14:8 3733.333333333334
397 *14:8 *14:9 5.0
398 *14:9 *14:10 746.6666666666669
399 *14:10 *14:11 5.0
400 *14:11 *14:6 700.0000000000001
*END

*D_NET *15 0.00020158912
*CONN
*I AOI22X1_13:A I
*I NAND2X1_26:A I
*I OAI21X1_1:A I
*I INVX1_1:Y O
*CAP
349 *15:1 2.5259e-05
350 *15:2 2.5157e-05
351 *15:3 2.688e-08
352 *15:4 5.0314e-05
353 *15:5 2.51774e-05
354 *15:6 4.0799999999999995e-08
355 *15:7 2.5157e-05
356 *15:8 1.1423999999999998e-07
357 *15:9 2.5157e-05
358 *15:10 2.88e-08
359 *15:11 2.5157e-05
*RES
401 OAI21X1_1:A *15:1 5.0
402 *15:1 *15:2 5.0
403 *15:2 *15:3 746.6666666666669
404 *15:3 *15:4 5.0
405 INVX1_1:Y *15:4 5.0
406 NAND2X1_26:A *15:5 5.0
407 *15:5 *15:6 466.66666666666674
408 *15:6 *15:7 5.0
409 *15:7 *15:8 3173.333333333334
410 *15:8 *15:9 5.0
411 *15:9 *15:1 1166.666666666667
412 AOI22X1_13:A *15:10 186.6666666666667
413 *15:10 *15:11 5.0
414 *15:11 *15:5 233.33333333333337
*END

*D_NET *16 2.5883138e-05
*CONN
*P end_of_stream O
*I INVX1_2:A I
*CAP
360 *16:1 1.632e-08
361 *16:2 6.11898e-07
362 *16:3 1.632e-08
363 *16:4 8.159999999999999e-08
364 INVX1_2:A 2.5157e-05
*RES
415 end_of_stream *16:1 186.6666666666667
416 *16:1 *16:2 6998.833333333336
417 *16:2 *16:3 186.6666666666667
418 *16:3 *16:4 933.3333333333335
419 *16:4 INVX1_2:A 5.0
*END

*D_NET *17 0.00020199927999999995
*CONN
*I AOI21X1_2:A I
*I AOI21X1_1:C I
*I OAI21X1_1:B I
*I INVX1_2:Y O
*CAP
365 *17:1 2.5565e-05
366 *17:2 2.5157e-05
367 *17:3 2.688e-08
368 *17:4 5.0314e-05
369 *17:5 2.5157e-05
370 *17:6 2.8151999999999994e-07
371 *17:7 2.5157e-05
372 *17:8 2.5157e-05
373 *17:9 2.688e-08
374 *17:10 2.5157e-05
*RES
420 AOI21X1_2:A *17:1 5.0
421 *17:1 *17:2 5.0
422 *17:2 *17:3 746.6666666666669
423 *17:3 *17:4 5.0
424 INVX1_2:Y *17:4 5.0
425 OAI21X1_1:B *17:5 5.0
426 *17:5 *17:6 186.6666666666667
427 *17:6 *17:1 4666.666666666668
428 AOI21X1_1:C *17:7 5.0
429 *17:7 *17:8 5.0
430 *17:8 *17:9 746.6666666666669
431 *17:9 *17:10 5.0
432 *17:10 *17:6 3033.333333333334
*END

*D_NET *18 0.00010071452
*CONN
*I DFFPOSX1_1:D I
*I OAI21X1_1:Y O
*CAP
375 *18:1 2.5157e-05
376 *18:2 4.0799999999999995e-08
377 *18:3 2.5157e-05
378 *18:4 4.031999999999999e-08
379 *18:5 5.0314e-05
380 *18:7 5.3999999999999996e-09
*RES
433 DFFPOSX1_1:D *18:1 5.0
434 *18:1 *18:2 466.66666666666674
435 *18:2 *18:3 5.0
436 *18:3 *18:4 1120.0000000000002
437 *18:4 *18:5 5.0
438 *18:6 *18:5 5.0
439 *18:6 *18:7 35.00000000000001
*END

*D_NET *19 0.00010075136
*CONN
*I DFFPOSX1_6:Q O
*I INVX2_6:A I
*I NAND2X1_1:A I
*CAP
381 NAND2X1_1:A 2.88e-08
382 *19:1 2.5157e-05
383 *19:2 2.5157e-05
384 *19:3 5.376e-08
385 *19:4 2.5157e-05
386 *19:5 4.0799999999999995e-08
387 INVX2_6:A 2.5157e-05
*RES
440 INVX2_6:A NAND2X1_1:A 186.6666666666667
441 DFFPOSX1_6:Q *19:1 5.0
442 *19:1 *19:2 5.0
443 *19:2 *19:3 1493.3333333333337
444 *19:3 *19:4 5.0
445 *19:4 *19:5 466.66666666666674
446 *19:5 INVX2_6:A 5.0
*END

*D_NET *20 0.0001511268
*CONN
*I NOR2X1_33:B I
*I OR2X2_1:A I
*I NAND2X1_1:Y O
*CAP
388 *20:1 2.5157e-05
389 *20:2 2.0399999999999997e-08
390 *20:3 2.5157e-05
391 *20:4 3.3599999999999996e-08
392 *20:5 2.5157e-05
393 *20:6 6.119999999999999e-08
394 *20:7 2.5157e-05
395 *20:8 2.5157e-05
396 *20:9 4.0799999999999995e-08
397 *20:10 2.5157e-05