*SPEF "IEEE 1481-1998"
*DESIGN "o8_cpu"
*DATE "Sun Dec 15 18:34:22 2019"
*VENDOR "ISPD 2013 Contest"
*PROGRAM "Benchmark Parasitic Generator"
*VERSION "0.0"
*DESIGN_FLOW "PIN_CAP NONE"
*DIVIDER /
*DELIMITER :
*BUS_DELIMITER []
*T_UNIT 1.00000 NS
*C_UNIT 1.00000 PF
*R_UNIT 1.00000 OHM
*L_UNIT 1.00000 HENRY


*NAME_MAP
*0 clk_i
*1 clk_i_bF_buf8
*2 clk_i_bF_buf7
*3 clk_i_bF_buf6
*4 clk_i_bF_buf5
*5 clk_i_bF_buf4
*6 clk_i_bF_buf3
*7 clk_i_bF_buf2
*8 clk_i_bF_buf1
*9 clk_i_bF_buf0
*10 _68_
*11 _68__bF_buf3
*12 _68__bF_buf2
*13 _68__bF_buf1
*14 _68__bF_buf0
*15 pg_zf
*16 pg_zf_bF_buf6
*17 pg_zf_bF_buf5
*18 pg_zf_bF_buf4
*19 pg_zf_bF_buf3
*20 pg_zf_bF_buf2
*21 pg_zf_bF_buf1
*22 pg_zf_bF_buf0
*23 autocarry
*24 rst_i
*25 _10_
*26 _11_
*27 state_0_
*28 _12_
*29 state_1_
*30 _13_
*31 state_3_
*32 state_4_
*33 _14_
*34 state_2_
*35 _15_
*36 _16_
*37 _17_
*38 _18_
*39 ac_sel_0_
*40 op_cf
*41 _19_
*42 _20_
*43 autocarry_next
*44 _21_
*45 _22_
*46 _23_
*47 _24_
*48 _25_
*49 _26_
*50 _27_
*51 _28_
*52 data_i[0]
*53 _29_
*54 _30_
*55 _31_
*56 _32_
*57 _33_
*58 _34_
*59 _35_
*60 alu_res_0_
*61 _36_
*62 _5__0_
*63 data_i[1]
*64 _37_
*65 _38_
*66 alu_res_1_
*67 _39_
*68 _5__1_
*69 data_i[2]
*70 _40_
*71 _41_
*72 alu_res_2_
*73 _42_
*74 _5__2_
*75 data_i[3]
*76 _43_
*77 _44_
*78 alu_res_3_
*79 _45_
*80 _5__3_
*81 data_i[4]
*82 _46_
*83 _47_
*84 alu_res_4_
*85 _48_
*86 _5__4_
*87 data_i[5]
*88 _49_
*89 _50_
*90 alu_res_5_
*91 _51_
*92 _5__5_
*93 data_i[6]
*94 _52_
*95 _53_
*96 alu_res_6_
*97 _54_
*98 _5__6_
*99 data_i[7]
*100 _55_
*101 _56_
*102 op_sf
*103 _57_
*104 _5__7_
*105 _58_
*106 _59_
*107 ac_which_2_
*108 _60_
*109 _61_
*110 _62_
*111 _63_
*112 _64_
*113 _65_
*114 _66_
*115 _67_
*116 _69_
*117 _70_
*118 _71_
*119 _72_
*120 _1__8_
*121 _1__9_
*122 _1__10_
*123 _1__11_
*124 _1__12_
*125 _1__13_
*126 _1__14_
*127 _1__15_
*128 _73_
*129 _2__0_
*130 _2__1_
*131 _2__2_
*132 _2__3_
*133 _2__4_
*134 _2__5_
*135 _2__6_
*136 _2__7_
*137 _74_
*138 _9__0_
*139 _9__1_
*140 _9__2_
*141 _9__3_
*142 _9__4_
*143 prev_cf
*144 _75_
*145 alu_cf
*146 _76_
*147 _77_
*148 _78_
*149 _7__7_
*150 _4__7_
*151 _79_
*152 _1__0_
*153 _80_
*154 _1__1_
*155 _81_
*156 _1__2_
*157 _82_
*158 _1__3_
*159 _83_
*160 _1__4_
*161 _84_
*162 _1__5_
*163 _85_
*164 _1__6_
*165 _86_
*166 _1__7_
*167 op_zf
*168 _87_
*169 _0__0_
*170 _0__1_
*171 alu_of_out
*172 _88_
*173 _0__2_
*174 _89_
*175 _0__3_
*176 _90_
*177 _0__4_
*178 _93_
*179 _6__0_
*180 _6__1_
*181 _6__2_
*182 _6__3_
*183 _6__4_
*184 _6__5_
*185 _6__6_
*186 _6__7_
*187 _3__0_
*188 _3__1_
*189 _3__2_
*190 _3__3_
*191 _3__4_
*192 _3__5_
*193 _3__6_
*194 _3__7_
*195 _3__8_
*196 _3__9_
*197 _3__10_
*198 _3__11_
*199 _3__12_
*200 _3__13_
*201 _3__14_
*202 _3__15_
*203 _8__0_
*204 _8__1_
*205 _8__2_
*206 _8__3_
*207 _8__4_
*208 _8__5_
*209 _8__6_
*210 _8__7_
*211 _8__8_
*212 _8__9_
*213 _8__10_
*214 _8__11_
*215 _8__12_
*216 _8__13_
*217 _8__14_
*218 _8__15_
*219 _0__5_
*220 _91__7_
*221 addr_o[0]
*222 addr_o[1]
*223 addr_o[2]
*224 addr_o[3]
*225 addr_o[4]
*226 addr_o[5]
*227 addr_o[6]
*228 addr_o[7]
*229 _91__15_
*230 addr_o[8]
*231 addr_o[9]
*232 addr_o[10]
*233 addr_o[11]
*234 addr_o[12]
*235 addr_o[13]
*236 addr_o[14]
*237 addr_o[15]
*238 _92__7_
*239 data_o[0]
*240 data_o[1]
*241 data_o[2]
*242 data_o[3]
*243 data_o[4]
*244 data_o[5]
*245 data_o[6]
*246 data_o[7]
*247 rd_o
*248 gnd
*249 wr_o

*D_NET *0 0.0005568036799999999
*CONN
*I BUFX4_9:A I
*I BUFX4_8:A I
*I BUFX4_7:A I
*I BUFX4_6:A I
*I BUFX4_5:A I
*I BUFX4_4:A I
*I BUFX4_3:A I
*I BUFX4_2:A I
*I BUFX4_1:A I
*CAP
0 *0:1 2.5157e-05
1 *0:2 4.0799999999999995e-08
2 *0:3 2.5157e-05
3 *0:4 4.5696e-07
4 *0:5 2.5157e-05
5 *0:6 4.0799999999999995e-08
6 BUFX4_1:A 2.5157e-05
7 *0:7 2.53406e-05
8 *0:8 1.4279999999999998e-07
9 *0:9 2.536532e-05
10 *0:10 2.5157e-05
11 *0:11 4.0799999999999995e-08
12 *0:12 2.5157e-05
13 *0:13 7.392e-08
14 *0:14 2.5361e-05
15 *0:15 2.5157e-05
16 *0:16 4.0799999999999995e-08
17 *0:17 2.5157e-05
18 *0:18 2.5361e-05
19 *0:19 4.2839999999999995e-07
20 *0:20 2.5157e-05
21 *0:21 1.344e-08
22 *0:22 2.5157e-05
23 *0:23 2.5157e-05
24 *0:24 2.0399999999999997e-08
25 *0:25 2.5157e-05
26 *0:26 1.2096e-07
27 *0:27 2.5157e-05
28 *0:28 2.5157e-05
29 *0:29 1.1832e-07
30 *0:30 7.751999999999999e-07
31 *0:31 2.5157e-05
32 *0:32 2.5157e-05
33 *0:33 8.159999999999999e-08
34 *0:34 2.5157e-05
35 *0:35 1.5455999999999998e-07
36 *0:36 2.5157e-05
*RES
0 BUFX4_3:A *0:1 5.0
1 *0:1 *0:2 466.66666666666674
2 *0:2 *0:3 5.0
3 *0:3 *0:4 5973.333333333335
4 *0:4 *0:5 5.0
5 *0:5 *0:6 466.66666666666674
6 *0:6 BUFX4_1:A 5.0
7 BUFX4_6:A *0:7 5.0
8 *0:7 *0:8 1633.3333333333337
9 *0:8 *0:9 5.0
10 *0:9 *0:4 6720.000000000002
11 BUFX4_7:A *0:10 5.0
12 *0:10 *0:11 466.66666666666674
13 *0:11 *0:12 5.0
14 *0:12 *0:13 2053.333333333334
15 *0:13 *0:14 5.0
16 *0:14 *0:7 2100.0000000000005
17 BUFX4_5:A *0:15 5.0
18 *0:15 *0:16 466.66666666666674
19 *0:16 *0:17 5.0
20 *0:17 *0:9 5786.666666666668
21 BUFX4_9:A *0:18 5.0
22 *0:18 *0:19 4900.000000000001
23 *0:19 *0:20 5.0
24 *0:20 *0:21 373.3333333333334
25 *0:21 *0:22 5.0
26 *0:22 *0:14 2333.333333333334
27 BUFX4_2:A *0:23 5.0
28 *0:23 *0:24 233.33333333333337
29 *0:24 *0:25 5.0
30 *0:25 *0:26 3360.000000000001
31 *0:26 *0:27 5.0
32 *0:27 *0:18 2333.333333333334
33 BUFX4_4:A *0:28 5.0
34 *0:28 *0:29 186.6666666666667
35 *0:29 *0:30 8866.666666666668
36 *0:30 *0:31 5.0
37 BUFX4_8:A *0:32 5.0
38 *0:32 *0:33 933.3333333333335
39 *0:33 *0:34 5.0
40 *0:34 *0:35 4293.333333333334
41 *0:35 *0:36 5.0
42 *0:36 *0:29 1166.666666666667
*END

*D_NET *1 0.00045456059999999995
*CONN
*I DFFPOSX1_52:CLK I
*I DFFPOSX1_7:CLK I
*I DFFPOSX1_77:CLK I
*I DFFPOSX1_69:CLK I
*I DFFPOSX1_67:CLK I
*I DFFPOSX1_65:CLK I
*I DFFPOSX1_66:CLK I
*I DFFPOSX1_6:CLK I
*I DFFPOSX1_60:CLK I
*I DFFPOSX1_57:CLK I
*I BUFX4_1:Y O
*CAP
37 *1:1 2.5157e-05
38 *1:2 2.52794e-05
39 *1:3 2.5157e-05
40 BUFX4_1:Y 2.88e-08
41 *1:4 2.52998e-05
42 *1:5 2.52578e-05
43 *1:6 6.048e-08
44 *1:7 2.5565e-05
45 *1:8 2.5157e-05
46 *1:9 2.4479999999999997e-07
47 DFFPOSX1_69:CLK 2.5157e-05
48 *1:10 2.5157e-05
49 *1:11 2.5157e-05
50 *1:12 2.54426e-05
51 *1:13 1.2239999999999998e-07
52 DFFPOSX1_67:CLK 2.51588e-05
53 *1:14 2.52998e-05
54 *1:15 2.5157e-05
55 *1:16 2.5157e-05
56 *1:17 2.5157e-05
57 *1:18 2.5157e-05
58 *1:19 7.392e-08
59 *1:20 2.5157e-05
*RES
43 DFFPOSX1_6:CLK *1:1 5.0
44 *1:1 *1:2 1400.0000000000002
45 *1:2 *1:3 5.0
46 *1:3 BUFX4_1:Y 186.6666666666667
47 DFFPOSX1_60:CLK *1:4 5.0
48 *1:4 *1:5 5.0
49 *1:5 *1:6 1680.0000000000005
50 *1:6 *1:2 5.0
51 DFFPOSX1_69:CLK *1:7 5.0
52 *1:7 *1:4 1633.3333333333337
53 DFFPOSX1_77:CLK *1:8 5.0
54 *1:8 *1:9 2800.0000000000005
55 *1:9 DFFPOSX1_69:CLK 5.0
56 DFFPOSX1_67:CLK *1:10 5.0
57 *1:10 *1:11 5.0
58 *1:11 *1:5 2800.0000000000005
59 DFFPOSX1_7:CLK *1:12 5.0
60 *1:12 *1:13 1400.0000000000002
61 *1:13 DFFPOSX1_67:CLK 5.0
62 DFFPOSX1_67:CLK DFFPOSX1_67:CLK 11.66666666666667
63 DFFPOSX1_65:CLK *1:14 5.0
64 *1:14 *1:12 3266.6666666666674
65 DFFPOSX1_52:CLK *1:15 5.0
66 *1:15 *1:14 1633.3333333333337
67 DFFPOSX1_57:CLK *1:16 5.0
68 *1:16 *1:7 4666.666666666668
69 DFFPOSX1_66:CLK *1:17 5.0
70 *1:17 *1:18 5.0
71 *1:18 *1:19 2053.333333333334
72 *1:19 *1:20 5.0
*END

*D_NET *2 0.00052979628
*CONN
*I DFFPOSX1_40:CLK I
*I DFFPOSX1_1:CLK I
*I DFFPOSX1_33:CLK I
*I DFFPOSX1_82:CLK I
*I DFFPOSX1_35:CLK I
*I DFFPOSX1_83:CLK I
*I DFFPOSX1_37:CLK I
*I DFFPOSX1_28:CLK I
*I DFFPOSX1_84:CLK I
*I DFFPOSX1_19:CLK I
*I BUFX4_2:Y O
*CAP
60 *2:1 2.5157e-05
61 *2:2 1.4279999999999998e-07
62 BUFX4_2:Y 2.5157e-05
63 *2:3 2.5157e-05
64 *2:4 2.523764e-05
65 *2:5 6.048e-08
66 *2:6 2.5157e-05
67 *2:7 2.5157e-05
68 *2:8 2.0399999999999997e-08
69 *2:9 2.523764e-05
70 *2:10 2.5157e-05
71 *2:11 1.4279999999999998e-07
72 *2:12 2.5157e-05
73 *2:13 2.5157e-05
74 *2:14 2.0399999999999997e-08
75 *2:15 2.5157e-05
76 *2:16 2.5157e-05
77 *2:17 2.52794e-05
78 DFFPOSX1_35:CLK 2.5157e-05
79 *2:18 2.5157e-05
80 *2:19 2.5157e-05
81 *2:20 7.392e-08
82 *2:21 2.5157e-05
83 *2:22 3.6719999999999995e-07
84 DFFPOSX1_82:CLK 2.5157e-05
85 *2:23 2.5157e-05
86 *2:24 2.5157e-05
87 *2:25 3.8759999999999995e-07
88 DFFPOSX1_83:CLK 2.5157e-05
*RES
73 DFFPOSX1_33:CLK *2:1 5.0
74 *2:1 *2:2 933.3333333333335
75 *2:2 BUFX4_2:Y 5.0
76 DFFPOSX1_40:CLK *2:3 5.0
77 *2:3 *2:4 5.0
78 *2:4 *2:5 1680.0000000000005
79 *2:5 *2:6 5.0
80 *2:6 *2:2 700.0000000000001
81 DFFPOSX1_84:CLK *2:7 5.0
82 *2:7 *2:8 233.33333333333337
83 *2:8 *2:9 5.0
84 *2:9 *2:4 2240.0000000000005
85 DFFPOSX1_28:CLK *2:10 5.0
86 *2:10 *2:11 1633.3333333333337
87 *2:11 *2:12 5.0
88 DFFPOSX1_35:CLK *2:13 5.0
89 *2:13 *2:14 233.33333333333337
90 *2:14 *2:15 5.0
91 *2:15 *2:9 2240.0000000000005
92 DFFPOSX1_19:CLK *2:16 5.0
93 *2:16 *2:17 1400.0000000000002
94 *2:17 DFFPOSX1_35:CLK 5.0
95 DFFPOSX1_82:CLK *2:18 5.0
96 *2:18 *2:19 5.0
97 *2:19 *2:20 2053.333333333334
98 *2:20 *2:17 5.0
99 DFFPOSX1_37:CLK *2:21 5.0
100 *2:21 *2:22 1166.666666666667
101 *2:22 DFFPOSX1_82:CLK 5.0
102 DFFPOSX1_83:CLK *2:23 5.0
103 *2:23 *2:22 3033.333333333334
104 DFFPOSX1_1:CLK *2:24 5.0
105 *2:24 *2:25 4433.333333333334
106 *2:25 DFFPOSX1_83:CLK 5.0
*END

*D_NET *3 0.0005798933200000001
*CONN
*I DFFPOSX1_50:CLK I
*I DFFPOSX1_75:CLK I
*I DFFPOSX1_42:CLK I
*I DFFPOSX1_32:CLK I
*I DFFPOSX1_59:CLK I
*I DFFPOSX1_12:CLK I
*I DFFPOSX1_5:CLK I
*I DFFPOSX1_39:CLK I
*I DFFPOSX1_29:CLK I
*I DFFPOSX1_13:CLK I
*I BUFX4_3:Y O
*CAP
89 *3:1 2.5157e-05
90 *3:2 2.5157e-05
91 *3:3 6.048e-08
92 *3:4 2.5157e-05
93 *3:5 2.0399999999999997e-08
94 BUFX4_3:Y 2.5157e-05
95 *3:6 5.0314e-05
96 *3:7 1.02e-07
97 DFFPOSX1_42:CLK 2.5157e-05
98 *3:8 2.5157e-05
99 *3:9 2.2439999999999997e-07
100 *3:10 2.5157e-05
101 *3:11 2.5157e-05
102 *3:12 1.4279999999999998e-07
103 *3:13 2.5157e-05
104 *3:14 7.392e-08
105 *3:15 2.54222e-05
106 *3:16 2.52998e-05
107 *3:17 2.5157e-05
108 *3:18 2.5157e-05
109 *3:19 2.0399999999999997e-08
110 *3:20 2.5157e-05
111 *3:21 8.736e-08
112 *3:22 5.0314e-05
113 *3:23 2.5157e-05
114 *3:24 2.52794e-05
115 DFFPOSX1_59:CLK 2.5157e-05
116 *3:25 2.5157e-05
117 *3:26 2.5157e-05
118 *3:27 2.0159999999999997e-08
*RES
107 DFFPOSX1_42:CLK *3:1 5.0
108 *3:1 *3:2 5.0
109 *3:2 *3:3 1120.0000000000002
110 *3:3 *3:4 5.0
111 *3:4 *3:5 233.33333333333337
112 *3:5 BUFX4_3:Y 5.0
113 DFFPOSX1_29:CLK *3:6 5.0
114 *3:6 *3:7 1166.666666666667
115 *3:7 DFFPOSX1_42:CLK 5.0
116 DFFPOSX1_5:CLK *3:8 5.0
117 *3:8 *3:9 2566.666666666667
118 *3:9 *3:10 5.0
119 *3:10 *3:3 560.0000000000001
120 DFFPOSX1_12:CLK *3:11 5.0
121 *3:11 *3:12 233.33333333333337
122 *3:12 *3:13 5.0
123 *3:13 *3:14 2053.333333333334
124 *3:14 *3:6 5.0
125 DFFPOSX1_13:CLK *3:15 5.0
126 *3:15 *3:12 1400.0000000000002
127 DFFPOSX1_39:CLK *3:16 5.0
128 *3:16 *3:15 3033.333333333334
129 DFFPOSX1_32:CLK *3:17 5.0
130 *3:17 *3:16 1633.3333333333337
131 DFFPOSX1_59:CLK *3:18 5.0
132 *3:18 *3:19 233.33333333333337
133 *3:19 *3:20 5.0
134 *3:20 *3:21 2426.666666666667
135 *3:21 *3:22 5.0
136 DFFPOSX1_5:CLK *3:22 5.0
137 DFFPOSX1_50:CLK *3:23 5.0
138 *3:23 *3:24 1400.0000000000002
139 *3:24 DFFPOSX1_59:CLK 5.0
140 DFFPOSX1_75:CLK *3:25 5.0
141 *3:25 *3:26 5.0
142 *3:26 *3:27 560.0000000000001
143 *3:27 *3:24 5.0
*END

*D_NET *4 0.0004547205599999999
*CONN
*I DFFPOSX1_73:CLK I
*I DFFPOSX1_30:CLK I
*I DFFPOSX1_27:CLK I
*I DFFPOSX1_26:CLK I
*I DFFPOSX1_36:CLK I
*I DFFPOSX1_3:CLK I
*I DFFPOSX1_10:CLK I
*I DFFPOSX1_23:CLK I
*I DFFPOSX1_48:CLK I
*I DFFPOSX1_74:CLK I
*I BUFX4_4:Y O
*CAP
119 *4:2 1.8e-09
120 BUFX4_4:Y 2.5301e-05
121 *4:3 2.5157e-05
122 *4:4 4.0799999999999995e-08
123 *4:5 1.632e-08
124 *4:6 6.119999999999999e-08
125 *4:7 2.5157e-05
126 *4:8 1.6319999999999998e-07
127 DFFPOSX1_10:CLK 2.51588e-05
128 *4:9 2.5157e-05
129 *4:10 5.1e-07
130 DFFPOSX1_73:CLK 2.5157e-05
131 *4:11 2.5157e-05
132 *4:12 2.6519999999999997e-07
133 *4:13 2.52578e-05
134 *4:14 1.2096e-07
135 *4:15 5.0314e-05
136 *4:16 2.5157e-05
137 *4:17 2.5157e-05
138 *4:18 2.6519999999999997e-07
139 *4:19 2.5157e-05
140 *4:20 2.52794e-05
141 *4:21 2.5157e-05
142 *4:22 2.5157e-05
143 *4:23 2.0399999999999997e-08
144 *4:24 2.5157e-05
145 *4:25 6.048e-08
146 *4:26 2.5157e-05
*RES
144 *4:1 *4:2 11.66666666666667
145 *4:2 BUFX4_4:Y 933.3333333333335
146 DFFPOSX1_10:CLK *4:3 5.0
147 *4:3 *4:4 466.66666666666674
148 *4:4 *4:5 186.6666666666667
149 *4:5 *4:6 700.0000000000001
150 *4:6 BUFX4_4:Y 5.0
151 DFFPOSX1_73:CLK *4:7 5.0
152 *4:7 *4:8 1866.666666666667
153 *4:8 DFFPOSX1_10:CLK 5.0
154 DFFPOSX1_10:CLK DFFPOSX1_10:CLK 11.66666666666667
155 DFFPOSX1_23:CLK *4:9 5.0
156 *4:9 *4:10 1633.3333333333337
157 *4:10 DFFPOSX1_73:CLK 5.0
158 DFFPOSX1_30:CLK *4:11 5.0
159 *4:11 *4:12 233.33333333333337
160 *4:12 *4:13 5.0
161 *4:13 *4:14 3360.000000000001
162 *4:14 *4:15 5.0
163 DFFPOSX1_3:CLK *4:15 5.0
164 DFFPOSX1_36:CLK *4:16 5.0
165 *4:16 *4:12 2800.0000000000005
166 DFFPOSX1_26:CLK *4:17 5.0
167 *4:17 *4:18 233.33333333333337
168 *4:18 *4:19 5.0
169 *4:19 *4:13 2800.0000000000005
170 DFFPOSX1_48:CLK *4:20 5.0
171 *4:20 *4:18 2800.0000000000005
172 DFFPOSX1_27:CLK *4:21 5.0
173 *4:21 *4:20 1400.0000000000002
174 DFFPOSX1_74:CLK *4:22 5.0
175 *4:22 *4:23 233.33333333333337
176 *4:23 *4:24 5.0
177 *4:24 *4:25 1680.0000000000005
178 *4:25 *4:26 5.0
179 *4:26 *4:10 4200.000000000001
*END

*D_NET *5 0.0005550420800000001
*CONN
*I DFFPOSX1_62:CLK I
*I DFFPOSX1_21:CLK I
*I DFFPOSX1_78:CLK I
*I DFFPOSX1_2:CLK I
*I DFFPOSX1_72:CLK I
*I DFFPOSX1_9:CLK I
*I DFFPOSX1_56:CLK I
*I DFFPOSX1_79:CLK I
*I DFFPOSX1_43:CLK I
*I DFFPOSX1_47:CLK I
*I BUFX4_5:Y O
*CAP
147 *5:1 2.5157e-05
148 *5:2 4.0799999999999995e-08
149 *5:3 1.632e-08
150 *5:4 2.4479999999999997e-07
151 BUFX4_5:Y 2.5157e-05
152 *5:5 2.5157e-05
153 *5:6 2.5157e-05
154 *5:7 4.031999999999999e-08
155 *5:8 5.0314e-05
156 DFFPOSX1_2:CLK 1.8e-09
157 *5:9 2.5157e-05
158 *5:10 1.2239999999999998e-07
159 DFFPOSX1_72:CLK 2.51588e-05
160 *5:11 2.5157e-05
161 *5:12 3.876e-07
162 *5:13 2.5157e-05
163 DFFPOSX1_9:CLK 1.2599999999999999e-08
164 *5:14 2.5157e-05
165 *5:15 2.5157e-05
166 *5:16 1.2239999999999998e-07
167 DFFPOSX1_79:CLK 2.51588e-05
168 *5:17 5.0314e-05
169 *5:18 1.836e-07
170 *5:19 2.5157e-05
171 DFFPOSX1_56:CLK 1.2599999999999999e-08
172 *5:20 2.5157e-05
173 *5:21 2.04e-07
174 *5:22 2.5157e-05
175 DFFPOSX1_43:CLK 1.2599999999999999e-08
176 *5:23 2.5157e-05
177 *5:24 1.02e-07
178 DFFPOSX1_47:CLK 2.5157e-05
179 *5:25 2.5157e-05
180 *5:26 2.5157e-05
181 *5:27 8.063999999999999e-08
*RES
180 DFFPOSX1_2:CLK *5:1 5.0
181 *5:1 *5:2 466.66666666666674
182 *5:2 *5:3 186.6666666666667
183 *5:3 *5:4 2800.0000000000005
184 *5:4 BUFX4_5:Y 5.0
185 DFFPOSX1_72:CLK *5:5 5.0
186 *5:5 *5:6 5.0
187 *5:6 *5:7 1120.0000000000002
188 *5:7 *5:8 5.0
189 DFFPOSX1_2:CLK *5:8 5.0
190 DFFPOSX1_2:CLK DFFPOSX1_2:CLK 11.66666666666667
191 DFFPOSX1_9:CLK *5:9 5.0
192 *5:9 *5:10 1400.0000000000002
193 *5:10 DFFPOSX1_72:CLK 5.0
194 DFFPOSX1_72:CLK DFFPOSX1_72:CLK 11.66666666666667
195 DFFPOSX1_56:CLK *5:11 5.0
196 *5:11 *5:12 2100.0000000000005
197 *5:12 *5:13 5.0
198 *5:13 DFFPOSX1_9:CLK 81.66666666666667
199 DFFPOSX1_79:CLK *5:14 5.0
200 *5:14 *5:12 2333.333333333334
201 DFFPOSX1_43:CLK *5:15 5.0
202 *5:15 *5:16 1400.0000000000002
203 *5:16 DFFPOSX1_79:CLK 5.0
204 DFFPOSX1_79:CLK DFFPOSX1_79:CLK 11.66666666666667
205 DFFPOSX1_78:CLK *5:17 5.0
206 *5:17 *5:18 2100.0000000000005
207 *5:18 *5:19 5.0
208 *5:19 DFFPOSX1_56:CLK 81.66666666666667
209 DFFPOSX1_47:CLK *5:20 5.0
210 *5:20 *5:21 2333.333333333334
211 *5:21 *5:22 5.0
212 *5:22 DFFPOSX1_43:CLK 81.66666666666667
213 DFFPOSX1_21:CLK *5:23 5.0
214 *5:23 *5:24 1166.666666666667
215 *5:24 DFFPOSX1_47:CLK 5.0
216 DFFPOSX1_62:CLK *5:25 5.0
217 *5:25 *5:26 5.0
218 *5:26 *5:27 2240.0000000000005
219 *5:27 *5:17 5.0
*END

*D_NET *6 0.0004790951599999999
*CONN
*I DFFPOSX1_71:CLK I
*I DFFPOSX1_64:CLK I
*I DFFPOSX1_54:CLK I
*I DFFPOSX1_68:CLK I
*I DFFPOSX1_63:CLK I
*I DFFPOSX1_53:CLK I
*I DFFPOSX1_61:CLK I
*I DFFPOSX1_76:CLK I
*I DFFPOSX1_70:CLK I
*I BUFX4_6:Y O
*CAP
182 *6:1 2.88e-08
183 *6:2 5.05588e-05
184 *6:3 1.6319999999999998e-07
185 BUFX4_6:Y 2.5157e-05
186 *6:4 2.5157e-05
187 *6:5 5.0314e-05
188 *6:6 1.4279999999999998e-07
189 DFFPOSX1_63:CLK 2.5157e-05
190 *6:7 2.52998e-05
191 *6:8 2.5157e-05
192 *6:9 6.719999999999999e-08
193 *6:10 2.5157e-05
194 *6:11 2.5157e-05
195 *6:12 2.5157e-05
196 *6:13 6.048e-08
197 *6:14 2.5157e-05
198 *6:15 2.5157e-05
199 *6:16 2.5157e-05
200 *6:17 1.8143999999999996e-07
201 *6:18 2.5157e-05
202 *6:19 2.523764e-05
203 *6:20 2.5157e-05
204 *6:21 2.5157e-05
*RES
220 DFFPOSX1_76:CLK *6:1 186.6666666666667
221 *6:1 *6:2 5.0
222 *6:2 *6:3 1400.0000000000002
223 *6:3 BUFX4_6:Y 5.0
224 DFFPOSX1_63:CLK *6:4 5.0
225 *6:4 *6:2 2800.0000000000005
226 DFFPOSX1_54:CLK *6:5 5.0
227 *6:5 *6:6 1633.3333333333337
228 *6:6 DFFPOSX1_63:CLK 5.0
229 DFFPOSX1_64:CLK *6:7 5.0
230 *6:7 *6:8 5.0
231 *6:8 *6:9 1866.666666666667
232 *6:9 *6:2 5.0
233 DFFPOSX1_70:CLK *6:10 5.0
234 *6:10 *6:7 1633.3333333333337
235 DFFPOSX1_68:CLK *6:11 5.0
236 *6:11 *6:12 5.0
237 *6:12 *6:13 1680.0000000000005
238 *6:13 *6:14 5.0
239 *6:14 *6:3 466.66666666666674
240 DFFPOSX1_71:CLK *6:15 5.0
241 *6:15 *6:16 5.0
242 *6:16 *6:17 2426.666666666667
243 *6:17 *6:5 5.0
244 DFFPOSX1_53:CLK *6:18 5.0
245 *6:18 *6:19 5.0
246 *6:19 *6:17 2613.3333333333335
247 DFFPOSX1_61:CLK *6:20 5.0
248 *6:20 *6:21 5.0
249 *6:21 *6:19 2240.0000000000005
*END

*D_NET *7 0.00052944876
*CONN
*I DFFPOSX1_85:CLK I
*I DFFPOSX1_51:CLK I
*I DFFPOSX1_4:CLK I
*I DFFPOSX1_86:CLK I
*I DFFPOSX1_81:CLK I
*I DFFPOSX1_8:CLK I
*I DFFPOSX1_58:CLK I
*I DFFPOSX1_49:CLK I
*I DFFPOSX1_80:CLK I
*I BUFX4_7:Y O
*CAP
205 *7:1 2.5157e-05
206 *7:2 1.4279999999999998e-07
207 BUFX4_7:Y 2.5157e-05
208 *7:3 2.5157e-05
209 *7:4 2.0399999999999997e-08
210 *7:5 2.5157e-05
211 *7:6 8.735999999999998e-08
212 *7:7 2.5157e-05
213 *7:8 2.5157e-05
214 *7:9 2.0399999999999997e-08
215 *7:10 2.5157e-05
216 *7:11 2.88e-08
217 *7:12 2.53202e-05
218 *7:13 2.4479999999999997e-07
219 *7:14 2.5157e-05
220 *7:15 2.88e-08
221 *7:16 1.8e-09
222 *7:17 5.0314e-05
223 *7:18 2.5157e-05
224 *7:19 2.521748e-05
225 *7:20 1.6799999999999997e-07
226 *7:21 2.5157e-05
227 *7:22 1.4279999999999998e-07
228 *7:23 2.5157e-05
229 *7:24 2.5157e-05
230 *7:25 2.5157e-05
231 *7:26 4.031999999999999e-08
232 *7:27 5.0314e-05
233 DFFPOSX1_51:CLK 1.8e-09
234 *7:28 2.5157e-05
235 *7:29 2.5157e-05
*RES
250 DFFPOSX1_86:CLK *7:1 5.0
251 *7:1 *7:2 1166.666666666667
252 *7:2 BUFX4_7:Y 5.0
253 DFFPOSX1_8:CLK *7:3 5.0
254 *7:3 *7:4 233.33333333333337
255 *7:4 *7:5 5.0
256 *7:5 *7:6 1120.0000000000002
257 *7:6 *7:7 5.0
258 *7:7 *7:2 466.66666666666674
259 DFFPOSX1_4:CLK *7:8 5.0
260 *7:8 *7:9 233.33333333333337
261 *7:9 *7:10 5.0
262 *7:10 *7:6 1306.6666666666667
263 DFFPOSX1_80:CLK *7:11 186.6666666666667
264 *7:11 *7:12 5.0
265 *7:12 *7:13 2800.0000000000005
266 *7:13 *7:14 5.0
267 *7:14 *7:15 186.6666666666667
268 *7:15 *7:16 11.66666666666667
269 DFFPOSX1_49:CLK *7:17 5.0
270 *7:17 *7:12 1866.666666666667
271 DFFPOSX1_85:CLK *7:18 5.0
272 *7:18 *7:19 5.0
273 *7:19 *7:20 1306.6666666666667
274 *7:20 *7:17 5.0
275 DFFPOSX1_51:CLK *7:21 5.0
276 *7:21 *7:22 1633.3333333333337
277 *7:22 *7:23 5.0
278 *7:23 *7:19 1680.0000000000005
279 DFFPOSX1_58:CLK *7:24 5.0
280 *7:24 *7:25 5.0
281 *7:25 *7:26 1120.0000000000002
282 *7:26 *7:27 5.0
283 DFFPOSX1_51:CLK *7:27 5.0
284 DFFPOSX1_51:CLK DFFPOSX1_51:CLK 11.66666666666667
285 DFFPOSX1_81:CLK *7:28 5.0
286 *7:28 *7:29 5.0
287 *7:29 *7:20 3360.000000000001
*END

*D_NET *8 0.0004290409599999999
*CONN
*I DFFPOSX1_45:CLK I
*I DFFPOSX1_14:CLK I
*I DFFPOSX1_11:CLK I
*I DFFPOSX1_41:CLK I
*I DFFPOSX1_20:CLK I
*I DFFPOSX1_17:CLK I
*I DFFPOSX1_34:CLK I
*I DFFPOSX1_16:CLK I
*I DFFPOSX1_18:CLK I
*I BUFX4_8:Y O
*CAP
236 *8:1 2.54018e-05
237 *8:2 2.52578e-05
238 *8:3 8.736e-08
239 *8:4 5.0314e-05
240 BUFX4_8:Y 2.88e-08
241 *8:6 2.5157e-05
242 *8:7 2.54018e-05
243 *8:8 2.5157e-05
244 *8:9 2.5157e-05
245 *8:10 2.5157e-05
246 *8:11 1.02e-07
247 DFFPOSX1_18:CLK 2.5157e-05
248 *8:12 2.5157e-05
249 *8:13 1.836e-07
250 *8:14 2.5157e-05
251 DFFPOSX1_11:CLK 1.2599999999999999e-08
252 *8:15 2.54222e-05
253 *8:16 2.5157e-05
254 *8:17 2.5157e-05
255 *8:18 2.5157e-05
256 *8:19 1.02e-07
257 DFFPOSX1_41:CLK 2.5157e-05
*RES
288 DFFPOSX1_45:CLK *8:1 5.0
289 *8:1 *8:2 5.0
290 *8:2 *8:3 933.3333333333335
291 *8:3 *8:4 5.0
292 *8:5 *8:4 5.0
293 *8:5 BUFX4_8:Y 186.6666666666667
294 DFFPOSX1_11:CLK *8:6 5.0
295 *8:6 *8:1 2800.0000000000005
296 DFFPOSX1_16:CLK *8:7 5.0
297 *8:7 *8:8 5.0
298 *8:8 *8:3 1493.3333333333337
299 DFFPOSX1_18:CLK *8:9 5.0
300 *8:9 *8:7 2800.0000000000005
301 DFFPOSX1_17:CLK *8:10 5.0
302 *8:10 *8:11 1166.666666666667
303 *8:11 DFFPOSX1_18:CLK 5.0
304 DFFPOSX1_20:CLK *8:12 5.0
305 *8:12 *8:13 2100.0000000000005
306 *8:13 *8:14 5.0
307 *8:14 DFFPOSX1_11:CLK 81.66666666666667
308 DFFPOSX1_34:CLK *8:15 5.0
309 *8:15 *8:16 5.0
310 *8:16 *8:2 2800.0000000000005
311 DFFPOSX1_41:CLK *8:17 5.0
312 *8:17 *8:15 3033.333333333334
313 DFFPOSX1_14:CLK *8:18 5.0
314 *8:18 *8:19 1166.666666666667
315 *8:19 DFFPOSX1_41:CLK 5.0
*END

*D_NET *9 0.00050444272
*CONN
*I DFFPOSX1_44:CLK I
*I DFFPOSX1_55:CLK I
*I DFFPOSX1_22:CLK I
*I DFFPOSX1_15:CLK I
*I DFFPOSX1_38:CLK I
*I DFFPOSX1_31:CLK I
*I DFFPOSX1_24:CLK I
*I DFFPOSX1_25:CLK I
*I DFFPOSX1_46:CLK I
*I BUFX4_9:Y O
*CAP
258 *9:1 2.53202e-05
259 *9:2 6.119999999999999e-08
260 *9:3 2.5157e-05
261 *9:4 8.063999999999999e-08
262 *9:5 2.5157e-05
263 *9:6 1.02e-07
264 BUFX4_9:Y 2.5157e-05
265 *9:7 2.5157e-05
266 *9:8 2.5157e-05
267 *9:9 4.0799999999999995e-08
268 *9:10 2.5157e-05
269 *9:11 2.5157e-05
270 *9:12 1.6319999999999998e-07
271 DFFPOSX1_22:CLK 2.5157e-05
272 *9:13 2.5157e-05
273 *9:14 2.5157e-05
274 *9:15 8.063999999999999e-08
275 *9:16 2.5157e-05
276 *9:17 2.5157e-05
277 *9:18 2.52998e-05
278 DFFPOSX1_24:CLK 2.5157e-05
279 *9:19 2.5157e-05
280 *9:20 2.2439999999999997e-07
281 *9:21 2.5157e-05
282 *9:22 2.53202e-05
283 *9:23 2.5157e-05
284 *9:24 8.063999999999999e-08
285 *9:25 2.5157e-05
*RES
316 DFFPOSX1_55:CLK *9:1 5.0
317 *9:1 *9:2 700.0000000000001
318 *9:2 *9:3 5.0
319 *9:3 *9:4 933.3333333333335
320 *9:4 *9:5 5.0
321 *9:5 *9:6 1166.666666666667
322 *9:6 BUFX4_9:Y 5.0
323 DFFPOSX1_25:CLK *9:7 5.0
324 *9:7 *9:1 1866.666666666667
325 DFFPOSX1_22:CLK *9:8 5.0
326 *9:8 *9:9 466.66666666666674
327 *9:9 *9:10 5.0
328 *9:10 *9:4 1306.6666666666667
329 DFFPOSX1_46:CLK *9:11 5.0
330 *9:11 *9:12 1633.3333333333337
331 *9:12 DFFPOSX1_22:CLK 5.0
332 DFFPOSX1_24:CLK *9:13 5.0
333 *9:13 *9:14 5.0
334 *9:14 *9:15 2240.0000000000005
335 *9:15 *9:16 5.0
336 *9:16 *9:12 233.33333333333337
337 DFFPOSX1_31:CLK *9:17 5.0
338 *9:17 *9:18 1633.3333333333337
339 *9:18 DFFPOSX1_24:CLK 5.0
340 DFFPOSX1_38:CLK *9:19 5.0
341 *9:19 *9:20 2566.666666666667
342 *9:20 *9:21 5.0
343 DFFPOSX1_15:CLK *9:22 5.0
344 *9:22 *9:23 5.0
345 *9:23 *9:24 2240.0000000000005
346 *9:24 *9:18 5.0
347 DFFPOSX1_44:CLK *9:25 5.0
348 *9:25 *9:22 1866.666666666667
*END

*D_NET *10 0.00020256951999999997
*CONN
*I NAND3X1_13:Y O
*I BUFX4_13:A I
*I BUFX4_12:A I
*I BUFX4_11:A I
*I BUFX4_10:A I
*CAP
286 *10:1 2.5157e-05
287 *10:2 2.0399999999999997e-08
288 *10:3 1.632e-08
289 *10:4 3.8759999999999995e-07
290 BUFX4_10:A 2.5157e-05
291 *10:5 2.5157e-05
292 *10:6 6.119999999999999e-08
293 *10:7 2.516372e-05
294 *10:8 2.6208e-07
295 *10:9 2.5157e-05
296 *10:10 2.88e-08
297 *10:11 2.5157e-05
298 *10:12 5.303999999999999e-07
299 *10:13 2.5157e-05
300 *10:14 2.5157e-05
*RES
349 BUFX4_11:A *10:1 5.0
350 *10:1 *10:2 233.33333333333337
351 *10:2 *10:3 186.6666666666667
352 *10:3 *10:4 4433.333333333334
353 *10:4 BUFX4_10:A 5.0
354 BUFX4_12:A *10:5 5.0
355 *10:5 *10:6 700.0000000000001
356 *10:6 *10:7 5.0
357 *10:7 *10:8 7280.000000000001
358 *10:8 *10:9 5.0
359 NAND3X1_13:Y *10:10 186.6666666666667
360 *10:10 *10:11 5.0
361 *10:11 *10:12 2100.0000000000005
362 *10:12 *10:13 5.0
363 *10:13 *10:7 186.6666666666667
364 BUFX4_13:A *10:14 5.0
365 *10:14 *10:12 3966.6666666666674
*END

*D_NET *11 0.00027742708
*CONN
*I OAI21X1_34:A I
*I OAI21X1_45:B I
*I OAI21X1_44:B I
*I OAI21X1_33:A I
*I OAI21X1_46:B I
*I BUFX4_10:Y O
*CAP
301 *11:1 2.5157e-05
302 *11:2 2.0399999999999997e-08
303 *11:3 2.517716e-05
304 *11:4 2.688e-08
305 *11:5 2.5157e-05
306 *11:6 2.0399999999999997e-08
307 *11:7 2.5157e-05
308 BUFX4_10:Y 2.88e-08
309 *11:8 2.5157e-05
310 *11:9 2.2439999999999997e-07
311 *11:10 2.523092e-05
312 *11:11 2.53814e-05
313 *11:12 2.519732e-05
314 *11:13 2.5157e-05
315 *11:14 2.5157e-05
316 *11:15 2.0399999999999997e-08
317 *11:16 2.5157e-05
*RES
366 OAI21X1_34:A *11:1 5.0
367 *11:1 *11:2 233.33333333333337
368 *11:2 *11:3 5.0
369 *11:3 *11:4 746.6666666666669
370 *11:4 *11:5 5.0
371 *11:5 *11:6 233.33333333333337
372 *11:6 *11:7 5.0
373 *11:7 BUFX4_10:Y 186.6666666666667
374 OAI21X1_46:B *11:8 5.0
375 *11:8 *11:9 2566.666666666667
376 *11:9 *11:10 5.0
377 *11:10 *11:3 560.0000000000001
378 OAI21X1_45:B *11:11 5.0
379 *11:11 *11:12 5.0
380 *11:12 *11:10 2053.333333333334
381 OAI21X1_44:B *11:13 5.0
382 *11:13 *11:11 2566.666666666667
383 OAI21X1_33:A *11:14 5.0
384 *11:14 *11:15 233.33333333333337
385 *11:15 *11:16 5.0
386 *11:16 *11:12 1120.0000000000002
*END

*D_NET *12 0.00027735027999999996
*CONN
*I OAI21X1_35:A I
*I OAI21X1_43:B I
*I OAI21X1_42:B I
*I OAI21X1_31:A I
*I OAI21X1_32:A I
*I BUFX4_11:Y O
*CAP
318 *12:1 2.5157e-05
319 *12:2 2.0399999999999997e-08
320 *12:3 2.526452e-05
321 *12:4 4.703999999999999e-08
322 *12:5 2.5157e-05
323 *12:6 1.02e-07
324 BUFX4_11:Y 2.5157e-05
325 *12:7 2.5157e-05
326 *12:8 1.6319999999999998e-07
327 *12:9 2.519732e-05
328 *12:10 2.5157e-05
329 *12:11 2.5157e-05
330 *12:12 2.5157e-05
331 *12:13 2.5157e-05
332 *12:14 1.4279999999999998e-07
333 *12:15 2.5157e-05
*RES
387 OAI21X1_43:B *12:1 5.0
388 *12:1 *12:2 233.33333333333337
389 *12:2 *12:3 5.0
390 *12:3 *12:4 1306.6666666666667
391 *12:4 *12:5 5.0
392 *12:5 *12:6 1166.666666666667
393 *12:6 BUFX4_11:Y 5.0
394 OAI21X1_42:B *12:7 5.0
395 *12:7 *12:8 233.33333333333337
396 *12:8 *12:9 5.0
397 *12:9 *12:3 2986.6666666666674
398 OAI21X1_32:A *12:10 5.0
399 *12:10 *12:8 1633.3333333333337
400 OAI21X1_31:A *12:11 5.0
401 *12:11 *12:12 5.0
402 *12:12 *12:9 1120.0000000000002
403 OAI21X1_35:A *12:13 5.0
404 *12:13 *12:14 1633.3333333333337
405 *12:14 *12:15 5.0
*END

*D_NET *13 0.00030254831999999995
*CONN
*I OAI21X1_38:C I
*I OAI21X1_36:A I
*I NAND3X1_15:B I
*I OAI21X1_47:B I
*I BUFX4_12:Y O
*CAP
334 *13:1 2.51774e-05
335 *13:2 1.4279999999999998e-07
336 BUFX4_12:Y 5.0314e-05
337 *13:3 2.5157e-05
338 *13:4 2.5157e-05
339 *13:5 2.0159999999999997e-08
340 *13:6 2.5157e-05
341 *13:7 2.52998e-05
342 *13:8 8.159999999999999e-08
343 *13:9 2.5157e-05
344 *13:10 3.3599999999999996e-08
345 *13:11 2.5157e-05
346 *13:12 4.0799999999999995e-08
347 *13:13 2.5157e-05
348 *13:14 6.119999999999999e-08
349 *13:15 2.5157e-05
350 *13:16 1.2096e-07
351 *13:17 2.5157e-05
*RES
406 OAI21X1_47:B *13:1 5.0
407 *13:1 *13:2 1633.3333333333337
408 *13:2 BUFX4_12:Y 5.0
409 OAI21X1_36:A *13:3 5.0
410 *13:3 *13:4 5.0
411 *13:4 *13:5 560.0000000000001
412 *13:5 *13:6 5.0
413 *13:6 *13:1 233.33333333333337
414 NAND3X1_15:B *13:7 5.0
415 *13:7 *13:8 933.3333333333335
416 *13:8 *13:9 5.0
417 *13:9 *13:10 933.3333333333335
418 *13:10 *13:11 5.0
419 *13:11 *13:12 466.66666666666674
420 *13:12 BUFX4_12:Y 5.0
421 OAI21X1_38:C *13:13 5.0
422 *13:13 *13:14 700.0000000000001
423 *13:14 *13:15 5.0
424 *13:15 *13:16 3360.000000000001
425 *13:16 *13:17 5.0
426 *13:17 *13:7 1633.3333333333337
*END

*D_NET *14 0.00030260807999999995
*CONN
*I OAI21X1_30:A I
*I OAI21X1_37:A I
*I OAI21X1_48:B I
*I OAI21X1_41:B I
*I BUFX4_13:Y O
*CAP
352 *14:1 2.5157e-05
353 *14:2 2.0399999999999997e-08
354 *14:3 2.5157e-05
355 *14:4 6.048e-08
356 *14:5 5.0314e-05
357 *14:6 2.5157e-05
358 *14:7 2.6519999999999997e-07
359 *14:8 2.5157e-05
360 *14:9 2.5157e-05
361 *14:10 8.159999999999999e-08
362 *14:11 2.5157e-05
363 *14:12 2.688e-08
364 *14:13 2.5157e-05
365 *14:14 2.5157e-05
366 *14:15 6.119999999999999e-08
367 *14:16 2.5157e-05
368 *14:17 2.0831999999999998e-07
369 *14:18 2.5157e-05
*RES
427 OAI21X1_41:B *14:1 5.0
428 *14:1 *14:2 233.33333333333337
429 *14:2 *14:3 5.0
430 *14:3 *14:4 1680.0000000000005
431 *14:4 *14:5 5.0
432 BUFX4_13:Y *14:5 5.0
433 OAI21X1_30:A *14:6 5.0
434 *14:6 *14:7 3033.333333333334
435 *14:7 *14:8 5.0
436 OAI21X1_37:A *14:9 5.0
437 *14:9 *14:10 700.0000000000001
438 *14:10 *14:11 5.0
439 *14:11 *14:12 746.6666666666669
440 *14:12 *14:13 5.0
441 OAI21X1_48:B *14:14 5.0
442 *14:14 *14:15 700.0000000000001
443 *14:15 *14:16 5.0
444 *14:16 *14:17 5786.666666666668
445 *14:17 *14:18 5.0
446 *14:18 *14:10 233.33333333333337
*END

*D_NET *15 0.004035363440000003
*CONN
*I DFFPOSX1_79:Q O
*I DFFPOSX1_78:Q O
*I DFFPOSX1_77:Q O
*I DFFPOSX1_76:Q O
*I DFFPOSX1_75:Q O
*I DFFPOSX1_74:Q O
*I DFFPOSX1_73:Q O
*I DFFPOSX1_72:Q O
*I DFFPOSX1_71:Q O
*I DFFPOSX1_70:Q O
*I DFFPOSX1_69:Q O
*I DFFPOSX1_68:Q O
*I DFFPOSX1_67:Q O
*I DFFPOSX1_66:Q O
*I DFFPOSX1_65:Q O
*I DFFPOSX1_64:Q O
*I DFFPOSX1_63:Q O
*I DFFPOSX1_62:Q O
*I DFFPOSX1_61:Q O
*I DFFPOSX1_60:Q O
*I DFFPOSX1_59:Q O
*I DFFPOSX1_58:Q O
*I DFFPOSX1_57:Q O
*I DFFPOSX1_56:Q O
*I DFFPOSX1_55:Q O
*I DFFPOSX1_54:Q O
*I DFFPOSX1_53:Q O
*I DFFPOSX1_52:Q O
*I DFFPOSX1_51:Q O
*I DFFPOSX1_50:Q O
*I DFFPOSX1_49:Q O
*I DFFPOSX1_48:Q O
*I DFFPOSX1_47:Q O
*I DFFPOSX1_46:Q O
*I DFFPOSX1_45:Q O
*I DFFPOSX1_44:Q O
*I DFFPOSX1_43:Q O
*I DFFPOSX1_42:Q O
*I DFFPOSX1_41:Q O
*I DFFPOSX1_40:Q O
*I DFFPOSX1_39:Q O
*I DFFPOSX1_38:Q O
*I DFFPOSX1_37:Q O
*I DFFPOSX1_36:Q O
*I DFFPOSX1_35:Q O
*I DFFPOSX1_34:Q O
*I DFFPOSX1_33:Q O
*I DFFPOSX1_32:Q O
*I DFFPOSX1_31:Q O
*I DFFPOSX1_30:Q O
*I DFFPOSX1_29:Q O
*I DFFPOSX1_28:Q O
*I DFFPOSX1_27:Q O
*I DFFPOSX1_26:Q O
*I DFFPOSX1_25:Q O
*I DFFPOSX1_24:Q O
*I DFFPOSX1_23:Q O
*I DFFPOSX1_22:Q O
*I DFFPOSX1_21:Q O
*I DFFPOSX1_20:Q O
*I DFFPOSX1_19:Q O
*I DFFPOSX1_18:Q O
*I DFFPOSX1_17:Q O
*I DFFPOSX1_16:Q O
*I DFFPOSX1_15:Q O
*I DFFPOSX1_14:Q O
*I DFFPOSX1_13:Q O
*I DFFPOSX1_12:Q O
*I DFFPOSX1_11:Q O
*I DFFPOSX1_10:Q O
*I DFFPOSX1_9:Q O
*I DFFPOSX1_8:Q O
*I DFFPOSX1_7:Q O
*I DFFPOSX1_6:Q O
*I DFFPOSX1_5:Q O
*I DFFPOSX1_4:Q O
*I DFFPOSX1_3:Q O
*I DFFPOSX1_2:Q O
*I BUFX2_3:A I